#########################################################################
dimension 3
atom_style full

# bonded potentials
bond_style harmonic
angle_style harmonic
dihedral_style hybrid opls class2

boundary p p p
units metal
neighbor 2 bin
neigh_modify check yes

timestep 0.001

read_data data.EtOCSMethyl_2000_$a
read_data data.EtOCSMethyl_2000_1.1
  orthogonal box = (-4 -4 -4) to (136 136 136)
  16800 atoms
  8000 bonds
  6000 angles
  4000 dihedrals

#########################################################################
# number of EtOCSMethyl precursors (referenced by moleculeID)
group precursors molecule <> $p $q
group precursors molecule <> 1 $q
group precursors molecule <> 1 2000
10000 atoms in group precursors

# number of free O atoms (referenced by atomID)
group freeO id <> $r $s
group freeO id <> 10001 $s
group freeO id <> 10001 16800
6800 atoms in group freeO

# number of porogen molecules (referenced by moleculeID)
group porogen molecule <> $t $v
group porogen molecule <> 2001 $v
group porogen molecule <> 2001 2000
0 atoms in group porogen

group active union precursors freeO porogen
16800 atoms in group active
group activematrix union precursors freeO
16800 atoms in group activematrix
group inactive subtract all active
0 atoms in group inactive
delete_atoms group inactive
Deleted 0 atoms, new total = 16800

#########################################################################
#soft potential to push the atoms apart
pair_style soft 3
pair_coeff	* * 0 500 3

thermo_style custom step temp tave press pave lx ly lz vol epair etotal

fix 1		active nvt 6000 6000 0.0100 drag 2.00
thermo		1000
run		20000
Step Temp T_ave Press P_ave Lx Ly Lz Volume E_pair TotEng
0            0            0   -2.8414386   -2.8414386          140          140          140      2744000            0    11.848978
Averages over the last 11 of 21 rows, steps 10000 to 20000:
Temp T_ave Press P_ave Lx Ly Lz Volume E_pair TotEng
6001.07 5996.6 3654.78 3733.32 140 140 140 2.744e+06 36.88 17109.9
Loop time of 41.7845 on 48 procs for 20000 steps with 16800 atoms

Pair  time (%) = 0.31397 (0.751403)
Bond  time (%) = 2.02438 (4.84482)
Neigh time (%) = 0.581536 (1.39175)
Comm  time (%) = 29.9587 (71.698)
Outpt time (%) = 0.0267986 (0.0641353)
Other time (%) = 8.87916 (21.2499)

thermo		1
minimize		1e-4 10000 10000
Step Temp T_ave Press P_ave Lx Ly Lz Volume E_pair TotEng
20000    6016.1045    6002.2365    3528.5227    3632.1872          140          140          140      2744000    22.060682    17091.745
Loop time of 5.58151 on 48 procs for 332 steps with 16800 atoms

Minimization stats:
  E initial, next-to-last, final = 4028.13 65.483 65.4797
  Gradient 2-norm init/final= 645.773 0.850006
  Gradient inf-norm init/final= 38.7997 0.0641749
  Iterations = 332
  Force evaluations = 2130

Pair  time (%) = 0.0732038 (1.31154)
Bond  time (%) = 0.228647 (4.09651)
Neigh time (%) = 0.000339066 (0.0060748)
Comm  time (%) = 2.7073 (48.5048)
Outpt time (%) = 0.445796 (7.987)
Other time (%) = 2.12622 (38.094)

#########################################################################
# simulated annealing to create structure
pair_style sw
pair_coeff * * OCS.sw Si O C

thermo		100

unfix		1
fix		1 active npt 9000 3000 0.0100 xyz 90000 60000 0.1000 drag 2.00
run		50000
Step Temp T_ave Press P_ave Lx Ly Lz Volume E_pair TotEng
20332    6016.1045    6016.1045    10950.013    5084.4692          140          140          140      2744000    3390.9557    16520.053
Averages over the last 251 of 502 rows, steps 45400 to 70332:
Temp T_ave Press P_ave Lx Ly Lz Volume E_pair TotEng
4492.06 4545.88 67465.8 67740 71.2168 71.2168 71.2168 361583 -14686.3 -1729.45
Loop time of 931.414 on 48 procs for 50000 steps with 16800 atoms

Pair  time (%) = 619.036 (66.462)
Bond  time (%) = 5.279 (0.566773)
Neigh time (%) = 10.7382 (1.1529)
Comm  time (%) = 245.047 (26.3091)
Outpt time (%) = 0.76833 (0.0824907)
Other time (%) = 50.5447 (5.42666)

unfix		1
fix		1 active npt 3000 300 0.0100 xyz 60000 1 0.1000 drag 2.00
run		100000
Step Temp T_ave Press P_ave Lx Ly Lz Volume E_pair TotEng
70332    2998.0244    3040.5272    60533.977    60258.965    68.785425    68.785425    68.785425    325453.75   -19440.704     -10675.1
Averages over the last 501 of 1002 rows, steps 120400 to 170332:
Temp T_ave Press P_ave Lx Ly Lz Volume E_pair TotEng
973.312 985.412 14994.7 15265.2 70.3142 70.3142 70.3142 347876 -23664.8 -20704
Loop time of 2303.58 on 48 procs for 100000 steps with 16800 atoms

Pair  time (%) = 1663.62 (72.219)
Bond  time (%) = 10.6089 (0.460538)
Neigh time (%) = 11.6841 (0.507215)
Comm  time (%) = 497.564 (21.5996)
Outpt time (%) = 1.71291 (0.0743585)
Other time (%) = 118.388 (5.1393)

unfix		1
fix		1 all npt 300 300 0.01 xyz 1 1 0.1 drag 2
fix		2 active rdf 2000 EtOCSMethyl_rdf_$a.txt 100 1 1 1 2 2 1 1 3 3 1 2 3 3 2 2 2 3 3
fix		2 active rdf 2000 EtOCSMethyl_rdf_1.1.txt 100 1 1 1 2 2 1 1 3 3 1 2 3 3 2 2 2 3 3
dump		1 porogen xyz 10000 porogen_*_$a.xyz
dump		1 porogen xyz 10000 porogen_*_1.1.xyz
dump		2 active xyz 10000 EtOCSMethyl_*_$a.xyz
dump		2 active xyz 10000 EtOCSMethyl_*_1.1.xyz
dump		3 activematrix xyz 10000 EtOCSMethyl_matrix_*_$a.xyz
dump		3 activematrix xyz 10000 EtOCSMethyl_matrix_*_1.1.xyz
run		10000
Step Temp T_ave Press P_ave Lx Ly Lz Volume E_pair TotEng
170332    299.30485    309.71649    105.30779    282.36929    73.461376    73.461376    73.461376    396439.74   -24561.545   -23580.394
Averages over the last 51 of 102 rows, steps 175400 to 180332:
Temp T_ave Press P_ave Lx Ly Lz Volume E_pair TotEng
299.774 299.6 37.8834 39.6756 73.8803 73.8803 73.8803 403261 -24569.6 -23587.9
Loop time of 180.749 on 48 procs for 10000 steps with 16800 atoms

Pair  time (%) = 118.229 (65.4108)
Bond  time (%) = 1.06001 (0.586454)
Neigh time (%) = 0.40771 (0.225567)
Comm  time (%) = 49.2575 (27.2519)
Outpt time (%) = 0.267108 (0.147779)
Other time (%) = 11.5273 (6.37753)

undump		1
undump		2
undump		3

#########################################################################
# remove the porogen molecules from the simulation and equilibrate the structure

delete_atoms group porogen
Deleted 0 atoms, new total = 16800

dump		1 active xyz 5000 EtOCSMethyl_*_$a.xyz
dump		1 active xyz 5000 EtOCSMethyl_*_1.1.xyz

unfix		1
fix		1 all npt 300 300 0.01 xyz 1 1 0.1 drag 2
run		20000
Step Temp T_ave Press P_ave Lx Ly Lz Volume E_pair TotEng
180332    301.22647     300.4955   -166.51556   -11.938378    73.838412    73.838412    73.838412    402575.22   -24572.325   -23587.313
Averages over the last 101 of 202 rows, steps 190400 to 200332:
Temp T_ave Press P_ave Lx Ly Lz Volume E_pair TotEng
299.974 299.957 -3.72148 -1.88975 74.0445 74.0445 74.0445 405955 -24570.8 -23588.7
Loop time of 359.801 on 48 procs for 20000 steps with 16800 atoms

Pair  time (%) = 233.46 (64.886)
Bond  time (%) = 2.12655 (0.591034)
Neigh time (%) = 0.781633 (0.21724)
Comm  time (%) = 98.1155 (27.2694)
Outpt time (%) = 0.54707 (0.152048)
Other time (%) = 24.7695 (6.88422)

#########################################################################
#apply setpwise pressure to measure modulus

unfix		1
fix		1 all npt 300 300 0.0100 xyz 2000 2000 0.1000 drag 2.00
run		20000
Step Temp T_ave Press P_ave Lx Ly Lz Volume E_pair TotEng
200332    299.04598    299.79362   -329.11329   -59.106224    74.104068    74.104068    74.104068    406936.03   -24570.449   -23591.445
Averages over the last 101 of 202 rows, steps 210400 to 220332:
Temp T_ave Press P_ave Lx Ly Lz Volume E_pair TotEng
300.092 300.086 2006.89 2011.63 72.3449 72.3449 72.3449 378638 -24578 -23600.5
Loop time of 387.288 on 48 procs for 20000 steps with 16800 atoms

Pair  time (%) = 262.969 (67.9001)
Bond  time (%) = 2.13097 (0.550228)
Neigh time (%) = 0.824244 (0.212825)
Comm  time (%) = 95.5563 (24.6732)
Outpt time (%) = 0.545338 (0.140809)
Other time (%) = 25.2622 (6.52285)

unfix		1
fix		1 all npt 300 300 0.0100 xyz 1500 1500 0.1000 drag 2.00
run		20000
Step Temp T_ave Press P_ave Lx Ly Lz Volume E_pair TotEng
220332     302.6115     300.1017    1902.5262    2004.6138     72.33403     72.33403     72.33403    378466.98   -24581.324   -23601.612
Averages over the last 101 of 202 rows, steps 230400 to 240332:
Temp T_ave Press P_ave Lx Ly Lz Volume E_pair TotEng
300.091 300.078 1501.02 1497.7 72.6384 72.6384 72.6384 383266 -24579.1 -23602.2
Loop time of 383.185 on 48 procs for 20000 steps with 16800 atoms

Pair  time (%) = 259.27 (67.6619)
Bond  time (%) = 2.12656 (0.554968)
Neigh time (%) = 0.829341 (0.216433)
Comm  time (%) = 96.3628 (25.1478)
Outpt time (%) = 0.517375 (0.13502)
Other time (%) = 24.0788 (6.28385)

unfix		1
fix		1 all npt 300 300 0.0100 xyz 1000 1000 0.1000 drag 2.00
run		20000
Step Temp T_ave Press P_ave Lx Ly Lz Volume E_pair TotEng
240332    300.42809    299.56602    1609.2812    1466.4723    72.601221    72.601221    72.601221    382676.49   -24572.948   -23599.631
Averages over the last 101 of 202 rows, steps 250400 to 260332:
Temp T_ave Press P_ave Lx Ly Lz Volume E_pair TotEng
299.903 299.905 984.886 991.786 73.0576 73.0576 73.0576 389938 -24577.2 -23599.2
Loop time of 374.911 on 48 procs for 20000 steps with 16800 atoms

Pair  time (%) = 251.616 (67.1135)
Bond  time (%) = 2.13481 (0.569417)
Neigh time (%) = 0.821078 (0.219006)
Comm  time (%) = 95.2316 (25.4011)
Outpt time (%) = 0.595217 (0.158762)
Other time (%) = 24.5123 (6.53816)

unfix		1
fix		1 all npt 300 300 0.0100 xyz 500 500 0.1000 drag 2.00
run		20000
Step Temp T_ave Press P_ave Lx Ly Lz Volume E_pair TotEng
260332    299.27227    300.35919    571.94532    852.32535    73.110388    73.110388    73.110388    390784.45   -24577.721   -23602.601
Averages over the last 101 of 202 rows, steps 270400 to 280332:
Temp T_ave Press P_ave Lx Ly Lz Volume E_pair TotEng
300.082 300.141 525.681 528.949 73.5658 73.5658 73.5658 398134 -24575.7 -23596.7
Loop time of 365.096 on 48 procs for 20000 steps with 16800 atoms

Pair  time (%) = 241.673 (66.1944)
Bond  time (%) = 2.1316 (0.583846)
Neigh time (%) = 0.814188 (0.223007)
Comm  time (%) = 95.7012 (26.2126)
Outpt time (%) = 0.525723 (0.143996)
Other time (%) = 24.25 (6.6421)

unfix		1
fix		1 all npt 300 300 0.0100 xyz 0 0 0.1000 drag 2.00
run		20000
Step Temp T_ave Press P_ave Lx Ly Lz Volume E_pair TotEng
280332    298.04446    299.30198    471.98981    548.27704    73.593109    73.593109    73.593109    398576.28   -24577.961   -23604.198
Averages over the last 101 of 202 rows, steps 290400 to 300332:
Temp T_ave Press P_ave Lx Ly Lz Volume E_pair TotEng
299.898 299.912 8.6313 13.4175 74.1215 74.1215 74.1215 407224 -24574.4 -23593.9
Loop time of 357.044 on 48 procs for 20000 steps with 16800 atoms

Pair  time (%) = 231.725 (64.9011)
Bond  time (%) = 2.12806 (0.596023)
Neigh time (%) = 0.768875 (0.215345)
Comm  time (%) = 97.4148 (27.2837)
Outpt time (%) = 0.544566 (0.152521)
Other time (%) = 24.4619 (6.85125)

unfix		1
fix		1 all npt 300 300 0.0100 xyz -500 -500 0.1000 drag 2.00
run		20000
Step Temp T_ave Press P_ave Lx Ly Lz Volume E_pair TotEng
300332    299.31247    299.79449   -39.822671    3.7062895    74.070248    74.070248    74.070248    406379.13   -24572.085   -23595.259
Averages over the last 101 of 202 rows, steps 310400 to 320332:
Temp T_ave Press P_ave Lx Ly Lz Volume E_pair TotEng
299.886 299.813 -507.78 -505.778 74.7012 74.7012 74.7012 416853 -24570 -23587.4
Loop time of 350.34 on 48 procs for 20000 steps with 16800 atoms

Pair  time (%) = 222.243 (63.4364)
Bond  time (%) = 2.12544 (0.606679)
Neigh time (%) = 0.762735 (0.217713)
Comm  time (%) = 99.7263 (28.4655)
Outpt time (%) = 0.518668 (0.148047)
Other time (%) = 24.9639 (7.12562)

unfix		1
fix		1 all npt 300 300 0.0100 xyz -1000 -1000 0.1000 drag 2.00
run		20000
Step Temp T_ave Press P_ave Lx Ly Lz Volume E_pair TotEng
320332     300.4832    300.66687   -395.33664   -444.87042    74.836544    74.836544    74.836544    419122.69   -24567.508   -23581.546
Averages over the last 101 of 202 rows, steps 330400 to 340332:
Temp T_ave Press P_ave Lx Ly Lz Volume E_pair TotEng
300.153 300.154 -993.144 -986.543 75.3223 75.3223 75.3223 427338 -24566.7 -23580.7
Loop time of 339.222 on 48 procs for 20000 steps with 16800 atoms

Pair  time (%) = 212.551 (62.6584)
Bond  time (%) = 2.12272 (0.625763)
Neigh time (%) = 0.762735 (0.224849)
Comm  time (%) = 99.6011 (29.3617)
Outpt time (%) = 0.522135 (0.153922)
Other time (%) = 23.6621 (6.9754)

unfix		1
fix		1 all npt 300 300 0.0100 xyz -1500 -1500 0.1000 drag 2.00
run		20000
Step Temp T_ave Press P_ave Lx Ly Lz Volume E_pair TotEng
340332    301.54825     300.1949   -1255.0336   -986.54875    75.428497    75.428497    75.428497    429147.27    -24565.44   -23577.784
Averages over the last 101 of 202 rows, steps 350400 to 360332:
Temp T_ave Press P_ave Lx Ly Lz Volume E_pair TotEng
300.188 300.127 -1526.97 -1522.63 75.949 75.949 75.949 438094 -24560.6 -23571.5
Loop time of 338.105 on 48 procs for 20000 steps with 16800 atoms

Pair  time (%) = 203.822 (60.2834)
Bond  time (%) = 2.11957 (0.626897)
Neigh time (%) = 0.757325 (0.223991)
Comm  time (%) = 102.719 (30.3809)
Outpt time (%) = 0.550998 (0.162966)
Other time (%) = 28.1364 (8.3218)

unfix		1
fix		1 all npt 300 300 0.0100 xyz -2000 -2000 0.1000 drag 2.00
run		20000
Step Temp T_ave Press P_ave Lx Ly Lz Volume E_pair TotEng
360332    296.35003    300.54352   -1491.7954   -1539.7403    76.013494    76.013494    76.013494    439209.86   -24559.509   -23578.599
Averages over the last 101 of 202 rows, steps 370400 to 380332:
Temp T_ave Press P_ave Lx Ly Lz Volume E_pair TotEng
300.125 300.087 -1998.51 -1995.66 76.5381 76.5381 76.5381 448367 -24554.7 -23561.8
Loop time of 344.367 on 48 procs for 20000 steps with 16800 atoms

Pair  time (%) = 196.375 (57.0248)
Bond  time (%) = 2.12087 (0.615875)
Neigh time (%) = 0.75811 (0.220146)
Comm  time (%) = 109.202 (31.7108)
Outpt time (%) = 0.758909 (0.220378)
Other time (%) = 35.1529 (10.208)

#########################################################################
clear
next a
next p
next q
next r
next s
next t
next v
jump in.EtOCSMethyl# EtOCSMethyl -- network connectivity scan -- with bulk modulus simulation

# trial parameter
variable a index 1.1 1.2 1.3 2.1 2.2 2.3 3.1 3.2 3.3
# EtOCSMethyl precursor start moleculeID parameter
variable p index 1 1 1 1 1 1 1 1 1
# EtOCSMethyl precursor end moleculeID parameter
variable q index 2000 2000 2000 2000 2000 2000 2000 2000 2000
# free O start atomID parameter
variable r index 10001 10001 10001 10001 10001 10001 10001 10001 10001
# free O end atomID parameter
variable s index 16800 16800 16800 17600 17600 17600 18400 18400 18400
# porogen start moleculeID parameter
variable t index 2001 2001 2001 2001 2001 2001 2001 2001 2001
# porogen end moleculeID parameter
variable v index 2000 2000 2000 2000 2000 2000 2000 2000 2000

log log_$a.lammps
log log_1.2.lammps
