#########################################################################
dimension 3
atom_style full

# bonded potentials
bond_style harmonic
angle_style harmonic
dihedral_style hybrid opls class2

boundary p p p
units metal
neighbor 2 bin
neigh_modify check yes

timestep 0.001

read_data data.EtOCSMethyl_2000_$a
read_data data.EtOCSMethyl_2000_2.1
  orthogonal box = (-4 -4 -4) to (138 138 138)
  17600 atoms
  8000 bonds
  6000 angles
  4000 dihedrals

#########################################################################
# number of EtOCSMethyl precursors (referenced by moleculeID)
group precursors molecule <> $p $q
group precursors molecule <> 1 $q
group precursors molecule <> 1 2000
10000 atoms in group precursors

# number of free O atoms (referenced by atomID)
group freeO id <> $r $s
group freeO id <> 10001 $s
group freeO id <> 10001 17600
7600 atoms in group freeO

# number of porogen molecules (referenced by moleculeID)
group porogen molecule <> $t $v
group porogen molecule <> 2001 $v
group porogen molecule <> 2001 2000
0 atoms in group porogen

group active union precursors freeO porogen
17600 atoms in group active
group activematrix union precursors freeO
17600 atoms in group activematrix
group inactive subtract all active
0 atoms in group inactive
delete_atoms group inactive
Deleted 0 atoms, new total = 17600

#########################################################################
#soft potential to push the atoms apart
pair_style soft 3
pair_coeff	* * 0 500 3

thermo_style custom step temp tave press pave lx ly lz vol epair etotal

fix 1		active nvt 6000 6000 0.0100 drag 2.00
thermo		1000
run		20000
Step Temp T_ave Press P_ave Lx Ly Lz Volume E_pair TotEng
0            0            0   -2.7230609   -2.7230609          142          142          142      2863288            0    11.848978
Averages over the last 11 of 21 rows, steps 10000 to 20000:
Temp T_ave Press P_ave Lx Ly Lz Volume E_pair TotEng
5996.29 5999.13 3798.3 3873.28 142 142 142 2.86329e+06 40.4404 17730.6
Loop time of 41.1027 on 48 procs for 20000 steps with 17600 atoms

Pair  time (%) = 0.333639 (0.81172)
Bond  time (%) = 2.01588 (4.90449)
Neigh time (%) = 0.595309 (1.44834)
Comm  time (%) = 29.8258 (72.5639)
Outpt time (%) = 0.0270498 (0.0658102)
Other time (%) = 8.3051 (20.2057)

thermo		1
minimize		1e-4 10000 10000
Step Temp T_ave Press P_ave Lx Ly Lz Volume E_pair TotEng
20000    5997.3518    5996.0597    3500.0215     3777.723          142          142          142      2863288    27.123652    17679.401
Loop time of 5.57254 on 48 procs for 335 steps with 17600 atoms

Minimization stats:
  E initial, next-to-last, final = 4036.33 64.1329 64.1296
  Gradient 2-norm init/final= 649.586 0.792454
  Gradient inf-norm init/final= 42.163 0.0526863
  Iterations = 335
  Force evaluations = 2085

Pair  time (%) = 0.075274 (1.3508)
Bond  time (%) = 0.222512 (3.99301)
Neigh time (%) = 0.000707616 (0.0126983)
Comm  time (%) = 2.7286 (48.965)
Outpt time (%) = 0.456225 (8.18702)
Other time (%) = 2.08923 (37.4915)

#########################################################################
# simulated annealing to create structure
pair_style sw
pair_coeff * * OCS.sw Si O C

thermo		100

unfix		1
fix		1 active npt 9000 3000 0.0100 xyz 90000 60000 0.1000 drag 2.00
run		50000
Step Temp T_ave Press P_ave Lx Ly Lz Volume E_pair TotEng
20335    5997.3518    5997.3518    10828.826      5088.74          142          142          142      2863288    3478.2921    17185.493
Averages over the last 251 of 502 rows, steps 45400 to 70335:
Temp T_ave Press P_ave Lx Ly Lz Volume E_pair TotEng
4494.04 4548.4 67359.7 67662.6 72.3581 72.3581 72.3581 379234 -14982.5 -1549.7
Loop time of 969.886 on 48 procs for 50000 steps with 17600 atoms

Pair  time (%) = 647.489 (66.7593)
Bond  time (%) = 5.29566 (0.546008)
Neigh time (%) = 11.41 (1.17643)
Comm  time (%) = 248.921 (25.665)
Outpt time (%) = 0.721817 (0.0744229)
Other time (%) = 56.0485 (5.77887)

unfix		1
fix		1 active npt 3000 300 0.0100 xyz 60000 1 0.1000 drag 2.00
run		100000
Step Temp T_ave Press P_ave Lx Ly Lz Volume E_pair TotEng
70335    2980.9584    3037.4816    59800.297    58907.771    70.043924    70.043924    70.043924    343646.09   -19664.433   -10615.967
Averages over the last 501 of 1002 rows, steps 120400 to 170335:
Temp T_ave Press P_ave Lx Ly Lz Volume E_pair TotEng
973.214 985.374 14954.6 15230.4 71.8964 71.8964 71.8964 372119 -23728 -20687.4
Loop time of 2351.59 on 48 procs for 100000 steps with 17600 atoms

Pair  time (%) = 1697.37 (72.1798)
Bond  time (%) = 10.6693 (0.453707)
Neigh time (%) = 12.3274 (0.524217)
Comm  time (%) = 510.913 (21.7263)
Outpt time (%) = 1.48347 (0.0630838)
Other time (%) = 118.824 (5.05291)

unfix		1
fix		1 all npt 300 300 0.01 xyz 1 1 0.1 drag 2
fix		2 active rdf 2000 EtOCSMethyl_rdf_$a.txt 100 1 1 1 2 2 1 1 3 3 1 2 3 3 2 2 2 3 3
fix		2 active rdf 2000 EtOCSMethyl_rdf_2.1.txt 100 1 1 1 2 2 1 1 3 3 1 2 3 3 2 2 2 3 3
dump		1 porogen xyz 10000 porogen_*_$a.xyz
dump		1 porogen xyz 10000 porogen_*_2.1.xyz
dump		2 active xyz 10000 EtOCSMethyl_*_$a.xyz
dump		2 active xyz 10000 EtOCSMethyl_*_2.1.xyz
dump		3 activematrix xyz 10000 EtOCSMethyl_matrix_*_$a.xyz
dump		3 activematrix xyz 10000 EtOCSMethyl_matrix_*_2.1.xyz
run		10000
Step Temp T_ave Press P_ave Lx Ly Lz Volume E_pair TotEng
170335    298.28625     310.7063   -57.284493     264.7001    77.384393    77.384393    77.384393    463404.39   -24625.647   -23637.143
Averages over the last 51 of 102 rows, steps 175400 to 180335:
Temp T_ave Press P_ave Lx Ly Lz Volume E_pair TotEng
299.707 299.72 21.9335 19.7984 78.6052 78.6052 78.6052 485686 -24631.4 -23642.1
Loop time of 159.853 on 48 procs for 10000 steps with 17600 atoms

Pair  time (%) = 97.2264 (60.8222)
Bond  time (%) = 1.06497 (0.666218)
Neigh time (%) = 0.392578 (0.245586)
Comm  time (%) = 48.6111 (30.4098)
Outpt time (%) = 0.479073 (0.299695)
Other time (%) = 12.0794 (7.55653)

undump		1
undump		2
undump		3

#########################################################################
# remove the porogen molecules from the simulation and equilibrate the structure

delete_atoms group porogen
Deleted 0 atoms, new total = 17600

dump		1 active xyz 5000 EtOCSMethyl_*_$a.xyz
dump		1 active xyz 5000 EtOCSMethyl_*_2.1.xyz

unfix		1
fix		1 all npt 300 300 0.01 xyz 1 1 0.1 drag 2
run		20000
Step Temp T_ave Press P_ave Lx Ly Lz Volume E_pair TotEng
180335    299.14031    300.22026   -165.38743    -1.747343    78.718152    78.718152    78.718152    487780.77   -24626.293   -23638.727
Averages over the last 101 of 202 rows, steps 190400 to 200335:
Temp T_ave Press P_ave Lx Ly Lz Volume E_pair TotEng
300.264 300.251 27.9497 33.7817 78.855 78.855 78.855 490329 -24630.7 -23642.2
Loop time of 312.856 on 48 procs for 20000 steps with 17600 atoms

Pair  time (%) = 189.379 (60.5322)
Bond  time (%) = 2.12801 (0.680188)
Neigh time (%) = 0.791098 (0.252863)
Comm  time (%) = 95.4104 (30.4965)
Outpt time (%) = 0.531621 (0.169925)
Other time (%) = 24.6163 (7.86825)

#########################################################################
#apply setpwise pressure to measure modulus

unfix		1
fix		1 all npt 300 300 0.0100 xyz 2000 2000 0.1000 drag 2.00
run		20000
Step Temp T_ave Press P_ave Lx Ly Lz Volume E_pair TotEng
200335    300.32082    299.60898    -2.439036   -60.010234    78.885773    78.885773    78.885773    490903.42   -24628.814   -23644.427
Averages over the last 101 of 202 rows, steps 210400 to 220335:
Temp T_ave Press P_ave Lx Ly Lz Volume E_pair TotEng
299.917 299.95 2025.99 2022.81 75.0763 75.0763 75.0763 423164 -24643.4 -23661.1
Loop time of 364.947 on 48 procs for 20000 steps with 17600 atoms

Pair  time (%) = 240.991 (66.0345)
Bond  time (%) = 2.12895 (0.583359)
Neigh time (%) = 0.851804 (0.233405)
Comm  time (%) = 95.9421 (26.2893)
Outpt time (%) = 0.587808 (0.161067)
Other time (%) = 24.4454 (6.69836)

unfix		1
fix		1 all npt 300 300 0.0100 xyz 1500 1500 0.1000 drag 2.00
run		20000
Step Temp T_ave Press P_ave Lx Ly Lz Volume E_pair TotEng
220335    297.24767    300.18594    2123.5299    2119.1256    74.947569    74.947569    74.947569    420990.85   -24640.224   -23660.628
Averages over the last 101 of 202 rows, steps 230400 to 240335:
Temp T_ave Press P_ave Lx Ly Lz Volume E_pair TotEng
300.233 300.207 1519.77 1514.78 75.6352 75.6352 75.6352 432686 -24645.5 -23662
Loop time of 365.768 on 48 procs for 20000 steps with 17600 atoms

Pair  time (%) = 235.206 (64.3046)
Bond  time (%) = 2.1263 (0.581325)
Neigh time (%) = 0.841235 (0.229991)
Comm  time (%) = 100.313 (27.4254)
Outpt time (%) = 0.566291 (0.154823)
Other time (%) = 26.715 (7.30381)

unfix		1
fix		1 all npt 300 300 0.0100 xyz 1000 1000 0.1000 drag 2.00
run		20000
Step Temp T_ave Press P_ave Lx Ly Lz Volume E_pair TotEng
240335    300.36374    300.54642     1638.733    1524.3804    75.523178    75.523178    75.523178    430765.35   -24651.168   -23665.703
Averages over the last 101 of 202 rows, steps 250400 to 260335:
Temp T_ave Press P_ave Lx Ly Lz Volume E_pair TotEng
300.118 300.147 1019.08 1023.91 76.5738 76.5738 76.5738 448995 -24640.9 -23657.2
Loop time of 349.45 on 48 procs for 20000 steps with 17600 atoms

Pair  time (%) = 220.538 (63.1101)
Bond  time (%) = 2.13245 (0.610229)
Neigh time (%) = 0.837511 (0.239665)
Comm  time (%) = 100.16 (28.6622)
Outpt time (%) = 0.534163 (0.152858)
Other time (%) = 25.2475 (7.22493)

unfix		1
fix		1 all npt 300 300 0.0100 xyz 500 500 0.1000 drag 2.00
run		20000
Step Temp T_ave Press P_ave Lx Ly Lz Volume E_pair TotEng
260335    299.40748    298.52466    885.73481     933.0059    76.521138    76.521138    76.521138    448068.33   -24640.896   -23655.331
Averages over the last 101 of 202 rows, steps 270400 to 280335:
Temp T_ave Press P_ave Lx Ly Lz Volume E_pair TotEng
300.032 300.004 495.006 492.52 77.6793 77.6793 77.6793 468723 -24638.1 -23653.6
Loop time of 332.745 on 48 procs for 20000 steps with 17600 atoms

Pair  time (%) = 204.44 (61.4406)
Bond  time (%) = 2.12576 (0.638857)
Neigh time (%) = 0.792826 (0.238269)
Comm  time (%) = 100.521 (30.2098)
Outpt time (%) = 0.534381 (0.160598)
Other time (%) = 24.3302 (7.31197)

unfix		1
fix		1 all npt 300 300 0.0100 xyz 0 0 0.1000 drag 2.00
run		20000
Step Temp T_ave Press P_ave Lx Ly Lz Volume E_pair TotEng
280335    299.62486     300.1472    768.50811    538.01013    77.714384    77.714384    77.714384       469358   -24638.754   -23657.059
Averages over the last 101 of 202 rows, steps 290400 to 300335:
Temp T_ave Press P_ave Lx Ly Lz Volume E_pair TotEng
300.027 300.019 13.8201 14.6167 78.9858 78.9858 78.9858 492775 -24631.7 -23643.7
Loop time of 312.532 on 48 procs for 20000 steps with 17600 atoms

Pair  time (%) = 188.072 (60.1768)
Bond  time (%) = 2.12243 (0.679109)
Neigh time (%) = 0.799071 (0.255677)
Comm  time (%) = 97.215 (31.1057)
Outpt time (%) = 0.536144 (0.171549)
Other time (%) = 23.7874 (7.61119)

unfix		1
fix		1 all npt 300 300 0.0100 xyz -500 -500 0.1000 drag 2.00
run		20000
Step Temp T_ave Press P_ave Lx Ly Lz Volume E_pair TotEng
300335    300.96402    299.65672     -162.697    -53.32979    78.974273    78.974273    78.974273    492557.47   -24634.397   -23646.138
Averages over the last 101 of 202 rows, steps 310400 to 320335:
Temp T_ave Press P_ave Lx Ly Lz Volume E_pair TotEng
299.963 299.958 -516.309 -519.769 80.4404 80.4404 80.4404 520503 -24625.1 -23634.9
Loop time of 303.305 on 48 procs for 20000 steps with 17600 atoms

Pair  time (%) = 173.724 (57.277)
Bond  time (%) = 2.12968 (0.702157)
Neigh time (%) = 0.800143 (0.263808)
Comm  time (%) = 101.54 (33.4777)
Outpt time (%) = 0.598978 (0.197483)
Other time (%) = 24.5127 (8.08186)

unfix		1
fix		1 all npt 300 300 0.0100 xyz -1000 -1000 0.1000 drag 2.00
run		20000
Step Temp T_ave Press P_ave Lx Ly Lz Volume E_pair TotEng
320335    299.23833    299.77393   -474.52456   -491.24477    80.389369    80.389369    80.389369    519512.34   -24626.553   -23638.392
Averages over the last 101 of 202 rows, steps 330400 to 340335:
Temp T_ave Press P_ave Lx Ly Lz Volume E_pair TotEng
300.029 300.031 -994.489 -1001.45 81.7008 81.7008 81.7008 545356 -24616.3 -23620.9
Loop time of 290.934 on 48 procs for 20000 steps with 17600 atoms

Pair  time (%) = 162.418 (55.8265)
Bond  time (%) = 2.13076 (0.732387)
Neigh time (%) = 0.736998 (0.253321)
Comm  time (%) = 100.234 (34.4526)
Outpt time (%) = 0.544899 (0.187293)
Other time (%) = 24.8689 (8.54795)

unfix		1
fix		1 all npt 300 300 0.0100 xyz -1500 -1500 0.1000 drag 2.00
run		20000
Step Temp T_ave Press P_ave Lx Ly Lz Volume E_pair TotEng
340335    297.67042     300.2435   -838.94402   -979.51958    81.724299    81.724299    81.724299    545825.23   -24618.312   -23631.303
Averages over the last 101 of 202 rows, steps 350400 to 360335:
Temp T_ave Press P_ave Lx Ly Lz Volume E_pair TotEng
300.146 300.067 -1499.68 -1503.17 82.9168 82.9168 82.9168 570069 -24607.9 -23605.7
Loop time of 285.768 on 48 procs for 20000 steps with 17600 atoms

Pair  time (%) = 153.199 (53.6094)
Bond  time (%) = 2.1262 (0.744029)
Neigh time (%) = 0.738461 (0.258413)
Comm  time (%) = 103.538 (36.2314)
Outpt time (%) = 0.565774 (0.197983)
Other time (%) = 25.6011 (8.9587)

unfix		1
fix		1 all npt 300 300 0.0100 xyz -2000 -2000 0.1000 drag 2.00
run		20000
Step Temp T_ave Press P_ave Lx Ly Lz Volume E_pair TotEng
360335     301.6921    300.68412   -1520.7082   -1480.8885    83.033244    83.033244    83.033244    572474.33   -24604.289   -23596.467
Averages over the last 101 of 202 rows, steps 370400 to 380335:
Temp T_ave Press P_ave Lx Ly Lz Volume E_pair TotEng
300.102 300.123 -1969.53 -1969.26 83.9785 83.9785 83.9785 592252 -24597.4 -23588.9
Loop time of 272.607 on 48 procs for 20000 steps with 17600 atoms

Pair  time (%) = 145.749 (53.4649)
Bond  time (%) = 2.12486 (0.779458)
Neigh time (%) = 0.729059 (0.26744)
Comm  time (%) = 99.0756 (36.3438)
Outpt time (%) = 0.566066 (0.207649)
Other time (%) = 24.3624 (8.93682)

#########################################################################
clear
next a
next p
next q
next r
next s
next t
next v
jump in.EtOCSMethyl# EtOCSMethyl -- network connectivity scan -- with bulk modulus simulation

# trial parameter
variable a index 1.1 1.2 1.3 2.1 2.2 2.3 3.1 3.2 3.3
# EtOCSMethyl precursor start moleculeID parameter
variable p index 1 1 1 1 1 1 1 1 1
# EtOCSMethyl precursor end moleculeID parameter
variable q index 2000 2000 2000 2000 2000 2000 2000 2000 2000
# free O start atomID parameter
variable r index 10001 10001 10001 10001 10001 10001 10001 10001 10001
# free O end atomID parameter
variable s index 16800 16800 16800 17600 17600 17600 18400 18400 18400
# porogen start moleculeID parameter
variable t index 2001 2001 2001 2001 2001 2001 2001 2001 2001
# porogen end moleculeID parameter
variable v index 2000 2000 2000 2000 2000 2000 2000 2000 2000

log log_$a.lammps
log log_2.2.lammps
