#########################################################################
dimension 3
atom_style full

# bonded potentials
bond_style harmonic
angle_style harmonic
dihedral_style hybrid opls class2

boundary p p p
units metal
neighbor 2 bin
neigh_modify check yes

timestep 0.001

read_data data.EtOCSMethyl_2000_$a
read_data data.EtOCSMethyl_2000_3.1
  orthogonal box = (-4 -4 -4) to (139 139 139)
  18400 atoms
  8000 bonds
  6000 angles
  4000 dihedrals

#########################################################################
# number of EtOCSMethyl precursors (referenced by moleculeID)
group precursors molecule <> $p $q
group precursors molecule <> 1 $q
group precursors molecule <> 1 2000
10000 atoms in group precursors

# number of free O atoms (referenced by atomID)
group freeO id <> $r $s
group freeO id <> 10001 $s
group freeO id <> 10001 18400
8400 atoms in group freeO

# number of porogen molecules (referenced by moleculeID)
group porogen molecule <> $t $v
group porogen molecule <> 2001 $v
group porogen molecule <> 2001 2000
0 atoms in group porogen

group active union precursors freeO porogen
18400 atoms in group active
group activematrix union precursors freeO
18400 atoms in group activematrix
group inactive subtract all active
0 atoms in group inactive
delete_atoms group inactive
Deleted 0 atoms, new total = 18400

#########################################################################
#soft potential to push the atoms apart
pair_style soft 3
pair_coeff	* * 0 500 3

thermo_style custom step temp tave press pave lx ly lz vol epair etotal

fix 1		active nvt 6000 6000 0.0100 drag 2.00
thermo		1000
run		20000
Step Temp T_ave Press P_ave Lx Ly Lz Volume E_pair TotEng
0            0            0   -2.6663323   -2.6663323          143          143          143      2924207            0    11.848978
Averages over the last 11 of 21 rows, steps 10000 to 20000:
Temp T_ave Press P_ave Lx Ly Lz Volume E_pair TotEng
5997.89 5998.28 4089.4 4142.51 143 143 143 2.92421e+06 45.8227 18350.8
Loop time of 41.6726 on 48 procs for 20000 steps with 18400 atoms

Pair  time (%) = 0.359585 (0.862881)
Bond  time (%) = 2.03967 (4.89452)
Neigh time (%) = 0.627652 (1.50615)
Comm  time (%) = 30.3619 (72.8582)
Outpt time (%) = 0.0267903 (0.0642875)
Other time (%) = 8.25697 (19.8139)

thermo		1
minimize		1e-4 10000 10000
Step Temp T_ave Press P_ave Lx Ly Lz Volume E_pair TotEng
20000    5978.6632    5997.4096    4191.6377     4076.473          143          143          143      2924207     42.28766    18323.802
Loop time of 5.74537 on 48 procs for 331 steps with 18400 atoms

Minimization stats:
  E initial, next-to-last, final = 4105 65.1235 65.1202
  Gradient 2-norm init/final= 678.716 0.805716
  Gradient inf-norm init/final= 49.859 0.0513908
  Iterations = 331
  Force evaluations = 2142

Pair  time (%) = 0.0818481 (1.42459)
Bond  time (%) = 0.23281 (4.05213)
Neigh time (%) = 0.00036793 (0.00640393)
Comm  time (%) = 2.8667 (49.8958)
Outpt time (%) = 0.442776 (7.70665)
Other time (%) = 2.12087 (36.9144)

#########################################################################
# simulated annealing to create structure
pair_style sw
pair_coeff * * OCS.sw Si O C

thermo		100

unfix		1
fix		1 active npt 9000 3000 0.0100 xyz 90000 60000 0.1000 drag 2.00
run		50000
Step Temp T_ave Press P_ave Lx Ly Lz Volume E_pair TotEng
20331    5978.6632    5978.6632    11000.348     5192.803          143          143          143      2924207    3658.9094     17942.83
Averages over the last 251 of 502 rows, steps 45400 to 70331:
Temp T_ave Press P_ave Lx Ly Lz Volume E_pair TotEng
4493.78 4548.22 67363.7 67637.8 73.5394 73.5394 73.5394 398102 -15179.8 -1277.86
Loop time of 993.902 on 48 procs for 50000 steps with 18400 atoms

Pair  time (%) = 669.451 (67.3558)
Bond  time (%) = 5.32819 (0.536087)
Neigh time (%) = 11.7922 (1.18645)
Comm  time (%) = 252.631 (25.4181)
Outpt time (%) = 0.68383 (0.0688025)
Other time (%) = 54.0161 (5.43474)

unfix		1
fix		1 active npt 3000 300 0.0100 xyz 60000 1 0.1000 drag 2.00
run		100000
Step Temp T_ave Press P_ave Lx Ly Lz Volume E_pair TotEng
70331    3000.3927    3045.4863    61566.584    60198.477    71.170735    71.170735    71.170735    360499.24   -19734.239   -10317.279
Averages over the last 501 of 1002 rows, steps 120400 to 170331:
Temp T_ave Press P_ave Lx Ly Lz Volume E_pair TotEng
973.39 985.533 14964.1 15237 73.6073 73.6073 73.6073 399883 -23762.9 -20635.3
Loop time of 2414.85 on 48 procs for 100000 steps with 18400 atoms

Pair  time (%) = 1721.33 (71.2811)
Bond  time (%) = 10.7167 (0.443782)
Neigh time (%) = 12.5733 (0.520665)
Comm  time (%) = 541.519 (22.4246)
Outpt time (%) = 1.42252 (0.0589074)
Other time (%) = 127.286 (5.27098)

unfix		1
fix		1 all npt 300 300 0.01 xyz 1 1 0.1 drag 2
fix		2 active rdf 2000 EtOCSMethyl_rdf_$a.txt 100 1 1 1 2 2 1 1 3 3 1 2 3 3 2 2 2 3 3
fix		2 active rdf 2000 EtOCSMethyl_rdf_3.1.txt 100 1 1 1 2 2 1 1 3 3 1 2 3 3 2 2 2 3 3
dump		1 porogen xyz 10000 porogen_*_$a.xyz
dump		1 porogen xyz 10000 porogen_*_3.1.xyz
dump		2 active xyz 10000 EtOCSMethyl_*_$a.xyz
dump		2 active xyz 10000 EtOCSMethyl_*_3.1.xyz
dump		3 activematrix xyz 10000 EtOCSMethyl_matrix_*_$a.xyz
dump		3 activematrix xyz 10000 EtOCSMethyl_matrix_*_3.1.xyz
run		10000
Step Temp T_ave Press P_ave Lx Ly Lz Volume E_pair TotEng
170331    300.22932    310.67972   -16.197948    225.94639    83.182884    83.182884    83.182884       575575   -24656.457   -23646.237
Averages over the last 51 of 102 rows, steps 175400 to 180331:
Temp T_ave Press P_ave Lx Ly Lz Volume E_pair TotEng
299.806 299.91 8.79485 0.728407 88.9514 88.9514 88.9514 703819 -24659.4 -23655
Loop time of 131.556 on 48 procs for 10000 steps with 18400 atoms

Pair  time (%) = 64.7068 (49.1856)
Bond  time (%) = 1.06475 (0.809352)
Neigh time (%) = 0.362939 (0.275881)
Comm  time (%) = 51.3294 (39.0171)
Outpt time (%) = 0.274047 (0.208312)
Other time (%) = 13.8183 (10.5037)

undump		1
undump		2
undump		3

#########################################################################
# remove the porogen molecules from the simulation and equilibrate the structure

delete_atoms group porogen
Deleted 0 atoms, new total = 18400

dump		1 active xyz 5000 EtOCSMethyl_*_$a.xyz
dump		1 active xyz 5000 EtOCSMethyl_*_3.1.xyz

unfix		1
fix		1 all npt 300 300 0.01 xyz 1 1 0.1 drag 2
run		20000
Step Temp T_ave Press P_ave Lx Ly Lz Volume E_pair TotEng
180331    297.97652      299.433    89.753047    25.195197     88.87778     88.87778     88.87778    702068.68   -24657.018   -23653.068
Averages over the last 101 of 202 rows, steps 190400 to 200331:
Temp T_ave Press P_ave Lx Ly Lz Volume E_pair TotEng
300 300.012 19.0814 18.955 89.4806 89.4806 89.4806 716452 -24660 -23655.8
Loop time of 255.437 on 48 procs for 20000 steps with 18400 atoms

Pair  time (%) = 122.259 (47.8628)
Bond  time (%) = 2.13012 (0.833915)
Neigh time (%) = 0.704679 (0.275872)
Comm  time (%) = 99.2401 (38.8512)
Outpt time (%) = 0.545818 (0.21368)
Other time (%) = 30.5569 (11.9626)

#########################################################################
#apply setpwise pressure to measure modulus

unfix		1
fix		1 all npt 300 300 0.0100 xyz 2000 2000 0.1000 drag 2.00
run		20000
Step Temp T_ave Press P_ave Lx Ly Lz Volume E_pair TotEng
200331    299.78305    299.91836   -22.843536    42.162771    89.504965    89.504965    89.504965     717036.7   -24660.114   -23657.633
Averages over the last 101 of 202 rows, steps 210400 to 220331:
Temp T_ave Press P_ave Lx Ly Lz Volume E_pair TotEng
299.976 300.015 2014.79 2007.43 77.6776 77.6776 77.6776 468696 -24674.4 -23674
Loop time of 345.784 on 48 procs for 20000 steps with 18400 atoms

Pair  time (%) = 219.795 (63.5643)
Bond  time (%) = 2.1384 (0.618421)
Neigh time (%) = 0.880506 (0.25464)
Comm  time (%) = 97.0775 (28.0746)
Outpt time (%) = 0.616486 (0.178286)
Other time (%) = 25.2762 (7.30982)

unfix		1
fix		1 all npt 300 300 0.0100 xyz 1500 1500 0.1000 drag 2.00
run		20000
Step Temp T_ave Press P_ave Lx Ly Lz Volume E_pair TotEng
220331    298.76406    299.70231    1803.0252    2081.2021    77.521722    77.521722    77.521722    465875.88   -24675.362    -23675.44
Averages over the last 101 of 202 rows, steps 230400 to 240331:
Temp T_ave Press P_ave Lx Ly Lz Volume E_pair TotEng
299.931 299.937 1502.95 1502.25 78.9646 78.9646 78.9646 492377 -24674.4 -23674.6
Loop time of 332.668 on 48 procs for 20000 steps with 18400 atoms

Pair  time (%) = 209.56 (62.9938)
Bond  time (%) = 2.13935 (0.64309)
Neigh time (%) = 0.861468 (0.258958)
Comm  time (%) = 95.4312 (28.6866)
Outpt time (%) = 0.543181 (0.16328)
Other time (%) = 24.1323 (7.25418)

unfix		1
fix		1 all npt 300 300 0.0100 xyz 1000 1000 0.1000 drag 2.00
run		20000
Step Temp T_ave Press P_ave Lx Ly Lz Volume E_pair TotEng
240331    299.64677    300.06713    1472.1747    1518.1166    78.922267    78.922267    78.922267    491585.04   -24674.992   -23675.415
Averages over the last 101 of 202 rows, steps 250400 to 260331:
Temp T_ave Press P_ave Lx Ly Lz Volume E_pair TotEng
299.997 300.032 1007.6 1004.3 80.9861 80.9861 80.9861 531170 -24671.3 -23670.9
Loop time of 309.69 on 48 procs for 20000 steps with 18400 atoms

Pair  time (%) = 183.686 (59.3127)
Bond  time (%) = 2.13121 (0.688176)
Neigh time (%) = 0.848424 (0.273959)
Comm  time (%) = 96.2405 (31.0764)
Outpt time (%) = 0.553572 (0.178751)
Other time (%) = 26.2306 (8.46995)

unfix		1
fix		1 all npt 300 300 0.0100 xyz 500 500 0.1000 drag 2.00
run		20000
Step Temp T_ave Press P_ave Lx Ly Lz Volume E_pair TotEng
260331    298.07845    299.62318    1073.2427    1038.9445    80.966896    80.966896    80.966896    530789.67   -24671.538   -23674.533
Averages over the last 101 of 202 rows, steps 270400 to 280331:
Temp T_ave Press P_ave Lx Ly Lz Volume E_pair TotEng
300.18 300.196 497.975 501.549 84.1957 84.1957 84.1957 596859 -24666.9 -23664.9
Loop time of 275.383 on 48 procs for 20000 steps with 18400 atoms

Pair  time (%) = 152.504 (55.3789)
Bond  time (%) = 2.13515 (0.775338)
Neigh time (%) = 0.801745 (0.291138)
Comm  time (%) = 95.0799 (34.5264)
Outpt time (%) = 0.568448 (0.206421)
Other time (%) = 24.2938 (8.82183)

unfix		1
fix		1 all npt 300 300 0.0100 xyz 0 0 0.1000 drag 2.00
run		20000
Step Temp T_ave Press P_ave Lx Ly Lz Volume E_pair TotEng
280331    300.26516    300.47558     455.0687    506.91771    84.259226    84.259226    84.259226    598208.26   -24664.776   -23660.735
Averages over the last 101 of 202 rows, steps 290400 to 300331:
Temp T_ave Press P_ave Lx Ly Lz Volume E_pair TotEng
299.997 300.023 -19.059 -17.8776 89.4902 89.4902 89.4902 716692 -24660.8 -23657
Loop time of 250.804 on 48 procs for 20000 steps with 18400 atoms

Pair  time (%) = 122.543 (48.86)
Bond  time (%) = 2.12877 (0.848779)
Neigh time (%) = 0.705382 (0.281249)
Comm  time (%) = 100.455 (40.0532)
Outpt time (%) = 0.541372 (0.215855)
Other time (%) = 24.4304 (9.74087)

unfix		1
fix		1 all npt 300 300 0.0100 xyz -500 -500 0.1000 drag 2.00
run		20000
Step Temp T_ave Press P_ave Lx Ly Lz Volume E_pair TotEng
300331     298.7454    300.12507    82.286469   -56.575603    89.548167    89.548167    89.548167    718075.48   -24660.163   -23652.994
Averages over the last 101 of 202 rows, steps 310400 to 320331:
Temp T_ave Press P_ave Lx Ly Lz Volume E_pair TotEng
300.019 300.019 -493.452 -501.805 94.4824 94.4824 94.4824 843440 -24650.2 -23640.1
Loop time of 243.181 on 48 procs for 20000 steps with 18400 atoms

Pair  time (%) = 105.913 (43.5532)
Bond  time (%) = 2.13083 (0.876232)
Neigh time (%) = 0.659507 (0.2712)
Comm  time (%) = 106.903 (43.9604)
Outpt time (%) = 0.585789 (0.240886)
Other time (%) = 26.9885 (11.0981)

unfix		1
fix		1 all npt 300 300 0.0100 xyz -1000 -1000 0.1000 drag 2.00
run		20000
Step Temp T_ave Press P_ave Lx Ly Lz Volume E_pair TotEng
320331     300.3296     300.1853   -283.03487    -394.2221    94.590523    94.590523    94.590523    846336.12   -24647.879   -23642.123
Averages over the last 101 of 202 rows, steps 330400 to 340331:
Temp T_ave Press P_ave Lx Ly Lz Volume E_pair TotEng
300.019 300.046 -1013.57 -1013.45 97.7521 97.7521 97.7521 934069 -24632.9 -23611.6
Loop time of 255.125 on 48 procs for 20000 steps with 18400 atoms

Pair  time (%) = 98.9235 (38.7746)
Bond  time (%) = 2.13195 (0.835652)
Neigh time (%) = 0.628961 (0.246531)
Comm  time (%) = 118.288 (46.3649)
Outpt time (%) = 0.726218 (0.284652)
Other time (%) = 34.4258 (13.4937)

unfix		1
fix		1 all npt 300 300 0.0100 xyz -1500 -1500 0.1000 drag 2.00
run		20000
Step Temp T_ave Press P_ave Lx Ly Lz Volume E_pair TotEng
340331    296.98321    299.59996    -1049.819   -1003.9783     97.77238     97.77238     97.77238    934649.04   -24631.458   -23621.934
Averages over the last 101 of 202 rows, steps 350400 to 360331:
Temp T_ave Press P_ave Lx Ly Lz Volume E_pair TotEng
299.969 299.988 -1509.81 -1509.08 101.537 101.537 101.537 1.04687e+06 -24609.3 -23573.8
Loop time of 249.309 on 48 procs for 20000 steps with 18400 atoms

Pair  time (%) = 93.1811 (37.3757)
Bond  time (%) = 2.12813 (0.853609)
Neigh time (%) = 0.61705 (0.247504)
Comm  time (%) = 115.863 (46.4735)
Outpt time (%) = 0.545267 (0.218711)
Other time (%) = 36.975 (14.831)

unfix		1
fix		1 all npt 300 300 0.0100 xyz -2000 -2000 0.1000 drag 2.00
run		20000
Step Temp T_ave Press P_ave Lx Ly Lz Volume E_pair TotEng
360331    300.68367    299.81525   -1494.4846   -1543.2993    102.09691    102.09691    102.09691    1064235.7   -24611.752   -23577.311
Averages over the last 78 of 155 rows, steps 368000 to 375700:
Temp T_ave Press P_ave Lx Ly Lz Volume E_pair TotEng
299.996 299.958 -2007.27 -2008.96 112.769 112.769 112.769 1.43636e+06 -24555.4 -23493.8
