#########################################################################
dimension 3
atom_style full

# bonded potentials
bond_style harmonic
angle_style harmonic
dihedral_style hybrid opls class2

boundary p p p
units metal
neighbor 2 bin
neigh_modify check yes

timestep 0.001

read_data data.EtOCSMethyl_2000_$a
read_data data.EtOCSMethyl_2000_1.2
  orthogonal box = (-4 -4 -4) to (136 136 136)
  16800 atoms
  8000 bonds
  6000 angles
  4000 dihedrals

#########################################################################
# number of EtOCSMethyl precursors (referenced by moleculeID)
group precursors molecule <> $p $q
group precursors molecule <> 1 $q
group precursors molecule <> 1 2000
10000 atoms in group precursors

# number of free O atoms (referenced by atomID)
group freeO id <> $r $s
group freeO id <> 10001 $s
group freeO id <> 10001 16800
6800 atoms in group freeO

# number of porogen molecules (referenced by moleculeID)
group porogen molecule <> $t $v
group porogen molecule <> 2001 $v
group porogen molecule <> 2001 2000
0 atoms in group porogen

group active union precursors freeO porogen
16800 atoms in group active
group activematrix union precursors freeO
16800 atoms in group activematrix
group inactive subtract all active
0 atoms in group inactive
delete_atoms group inactive
Deleted 0 atoms, new total = 16800

#########################################################################
#soft potential to push the atoms apart
pair_style soft 3
pair_coeff	* * 0 500 3

thermo_style custom step temp tave press pave lx ly lz vol epair etotal

fix 1		active nvt 6000 6000 0.0100 drag 2.00
thermo		1000
run		20000
Step Temp T_ave Press P_ave Lx Ly Lz Volume E_pair TotEng
0            0            0   -2.8414386   -2.8414386          140          140          140      2744000            0    11.848978
Averages over the last 11 of 21 rows, steps 10000 to 20000:
Temp T_ave Press P_ave Lx Ly Lz Volume E_pair TotEng
6003.84 5998.94 3654.8 3707.68 140 140 140 2.744e+06 35.9098 17085.1
Loop time of 40.3391 on 48 procs for 20000 steps with 16800 atoms

Pair  time (%) = 0.315428 (0.78194)
Bond  time (%) = 2.02211 (5.01278)
Neigh time (%) = 0.579524 (1.43663)
Comm  time (%) = 29.1712 (72.3151)
Outpt time (%) = 0.0283087 (0.0701768)
Other time (%) = 8.22249 (20.3834)

thermo		1
minimize		1e-4 10000 10000
Step Temp T_ave Press P_ave Lx Ly Lz Volume E_pair TotEng
20000    6008.1771    6002.3412    3384.9642    3638.2669          140          140          140      2744000    21.956217    17134.389
Loop time of 5.47861 on 48 procs for 332 steps with 16800 atoms

Minimization stats:
  E initial, next-to-last, final = 4087.99 65.0484 65.0456
  Gradient 2-norm init/final= 647.745 0.770137
  Gradient inf-norm init/final= 34.8539 0.0510928
  Iterations = 332
  Force evaluations = 2086

Pair  time (%) = 0.0720443 (1.31501)
Bond  time (%) = 0.223373 (4.07719)
Neigh time (%) = 0.000343944 (0.00627794)
Comm  time (%) = 2.67505 (48.8272)
Outpt time (%) = 0.436124 (7.96049)
Other time (%) = 2.07167 (37.8138)

#########################################################################
# simulated annealing to create structure
pair_style sw
pair_coeff * * OCS.sw Si O C

thermo		100

unfix		1
fix		1 active npt 9000 3000 0.0100 xyz 90000 60000 0.1000 drag 2.00
run		50000
Step Temp T_ave Press P_ave Lx Ly Lz Volume E_pair TotEng
20332    6008.1771    6008.1771    10886.252    5077.7331          140          140          140      2744000    3384.9876    16496.436
Averages over the last 251 of 502 rows, steps 45400 to 70332:
Temp T_ave Press P_ave Lx Ly Lz Volume E_pair TotEng
4490.82 4544.9 67576 67824.2 71.2064 71.2064 71.2064 361424 -14688.4 -1730.07
Loop time of 946.371 on 48 procs for 50000 steps with 16800 atoms

Pair  time (%) = 617.72 (65.2725)
Bond  time (%) = 5.28199 (0.55813)
Neigh time (%) = 10.8142 (1.14271)
Comm  time (%) = 251.631 (26.5891)
Outpt time (%) = 0.915842 (0.0967741)
Other time (%) = 60.0074 (6.34079)

unfix		1
fix		1 active npt 3000 300 0.0100 xyz 60000 1 0.1000 drag 2.00
run		100000
Step Temp T_ave Press P_ave Lx Ly Lz Volume E_pair TotEng
70332    2982.0288    3045.7861    58470.625    59765.491    68.833824    68.833824    68.833824    326141.22   -19522.589   -10760.672
Averages over the last 501 of 1002 rows, steps 120400 to 170332:
Temp T_ave Press P_ave Lx Ly Lz Volume E_pair TotEng
973.548 985.711 14919.8 15192.8 70.2789 70.2789 70.2789 347336 -23669.1 -20701.9
Loop time of 2324.67 on 48 procs for 100000 steps with 16800 atoms

Pair  time (%) = 1660.32 (71.4219)
Bond  time (%) = 10.6475 (0.458021)
Neigh time (%) = 11.7215 (0.504223)
Comm  time (%) = 511.868 (22.019)
Outpt time (%) = 1.60935 (0.0692295)
Other time (%) = 128.499 (5.52763)

unfix		1
fix		1 all npt 300 300 0.01 xyz 1 1 0.1 drag 2
fix		2 active rdf 2000 EtOCSMethyl_rdf_$a.txt 100 1 1 1 2 2 1 1 3 3 1 2 3 3 2 2 2 3 3
fix		2 active rdf 2000 EtOCSMethyl_rdf_1.2.txt 100 1 1 1 2 2 1 1 3 3 1 2 3 3 2 2 2 3 3
dump		1 porogen xyz 10000 porogen_*_$a.xyz
dump		1 porogen xyz 10000 porogen_*_1.2.xyz
dump		2 active xyz 10000 EtOCSMethyl_*_$a.xyz
dump		2 active xyz 10000 EtOCSMethyl_*_1.2.xyz
dump		3 activematrix xyz 10000 EtOCSMethyl_matrix_*_$a.xyz
dump		3 activematrix xyz 10000 EtOCSMethyl_matrix_*_1.2.xyz
run		10000
Step Temp T_ave Press P_ave Lx Ly Lz Volume E_pair TotEng
170332    300.37183    310.30529   -207.63162    204.46471    73.214707    73.214707    73.214707    392459.63   -24573.163   -23586.453
Averages over the last 51 of 102 rows, steps 175400 to 180332:
Temp T_ave Press P_ave Lx Ly Lz Volume E_pair TotEng
300.013 300.062 -8.53108 -7.70692 73.6156 73.6156 73.6156 398943 -24572 -23585.9
Loop time of 186.487 on 48 procs for 10000 steps with 16800 atoms

Pair  time (%) = 120.225 (64.4686)
Bond  time (%) = 1.06573 (0.57148)
Neigh time (%) = 0.404794 (0.217064)
Comm  time (%) = 52.2117 (27.9976)
Outpt time (%) = 0.279994 (0.150141)
Other time (%) = 12.2991 (6.59514)

undump		1
undump		2
undump		3

#########################################################################
# remove the porogen molecules from the simulation and equilibrate the structure

delete_atoms group porogen
Deleted 0 atoms, new total = 16800

dump		1 active xyz 5000 EtOCSMethyl_*_$a.xyz
dump		1 active xyz 5000 EtOCSMethyl_*_1.2.xyz

unfix		1
fix		1 all npt 300 300 0.01 xyz 1 1 0.1 drag 2
run		20000
Step Temp T_ave Press P_ave Lx Ly Lz Volume E_pair TotEng
180332    299.50661    300.01359    -40.79064   -26.506806    73.600879    73.600879    73.600879    398702.54   -24574.233   -23588.063
Averages over the last 101 of 202 rows, steps 190400 to 200332:
Temp T_ave Press P_ave Lx Ly Lz Volume E_pair TotEng
300.066 300.042 4.33652 0.0460238 73.7687 73.7687 73.7687 401437 -24571.9 -23585.8
Loop time of 367.015 on 48 procs for 20000 steps with 16800 atoms

Pair  time (%) = 237.399 (64.6836)
Bond  time (%) = 2.12884 (0.580041)
Neigh time (%) = 0.813381 (0.221621)
Comm  time (%) = 102.121 (27.8247)
Outpt time (%) = 0.550138 (0.149895)
Other time (%) = 24.0033 (6.54013)

#########################################################################
#apply setpwise pressure to measure modulus

unfix		1
fix		1 all npt 300 300 0.0100 xyz 2000 2000 0.1000 drag 2.00
run		20000
Step Temp T_ave Press P_ave Lx Ly Lz Volume E_pair TotEng
200332    300.50065    299.81916   -7.2103474    52.535578     73.84042     73.84042     73.84042    402608.07   -24571.331    -23583.23
Averages over the last 101 of 202 rows, steps 210400 to 220332:
Temp T_ave Press P_ave Lx Ly Lz Volume E_pair TotEng
299.93 299.913 1994.62 1999.57 72.2474 72.2474 72.2474 377109 -24579.3 -23600.3
Loop time of 394.111 on 48 procs for 20000 steps with 16800 atoms

Pair  time (%) = 264.497 (67.1122)
Bond  time (%) = 2.12588 (0.539411)
Neigh time (%) = 0.819025 (0.207816)
Comm  time (%) = 101.442 (25.7395)
Outpt time (%) = 0.576633 (0.146312)
Other time (%) = 24.6507 (6.25477)

unfix		1
fix		1 all npt 300 300 0.0100 xyz 1500 1500 0.1000 drag 2.00
run		20000
Step Temp T_ave Press P_ave Lx Ly Lz Volume E_pair TotEng
220332    299.75677    300.39812    2227.3612     1918.686    72.196793    72.196793    72.196793     376316.9   -24577.882   -23600.353
Averages over the last 101 of 202 rows, steps 230400 to 240332:
Temp T_ave Press P_ave Lx Ly Lz Volume E_pair TotEng
300.096 300.032 1495.87 1485.88 72.5775 72.5775 72.5775 382301 -24580.4 -23599.9
Loop time of 386.71 on 48 procs for 20000 steps with 16800 atoms

Pair  time (%) = 259.605 (67.1317)
Bond  time (%) = 2.12591 (0.549741)
Neigh time (%) = 0.828981 (0.214368)
Comm  time (%) = 99.4759 (25.7236)
Outpt time (%) = 0.519544 (0.13435)
Other time (%) = 24.1549 (6.24626)

unfix		1
fix		1 all npt 300 300 0.0100 xyz 1000 1000 0.1000 drag 2.00
run		20000
Step Temp T_ave Press P_ave Lx Ly Lz Volume E_pair TotEng
240332    302.57001    300.94027    1772.3307    1638.5793    72.640191    72.640191    72.640191    383293.04   -24585.542   -23602.234
Averages over the last 101 of 202 rows, steps 250400 to 260332:
Temp T_ave Press P_ave Lx Ly Lz Volume E_pair TotEng
300.105 300.053 1016.14 1015.41 72.9916 72.9916 72.9916 388883 -24578.4 -23597.7
Loop time of 378.38 on 48 procs for 20000 steps with 16800 atoms

Pair  time (%) = 251.77 (66.5388)
Bond  time (%) = 2.1227 (0.560998)
Neigh time (%) = 0.811788 (0.214543)
Comm  time (%) = 98.6431 (26.0698)
Outpt time (%) = 0.522697 (0.138141)
Other time (%) = 24.5102 (6.47768)

unfix		1
fix		1 all npt 300 300 0.0100 xyz 500 500 0.1000 drag 2.00
run		20000
Step Temp T_ave Press P_ave Lx Ly Lz Volume E_pair TotEng
260332    303.36882    300.56968    852.92441    973.39618    73.024946    73.024946    73.024946    389415.95   -24582.846   -23593.752
Averages over the last 101 of 202 rows, steps 270400 to 280332:
Temp T_ave Press P_ave Lx Ly Lz Volume E_pair TotEng
300.068 300.041 482.396 483.16 73.4011 73.4011 73.4011 395464 -24577.7 -23596.2
Loop time of 371.743 on 48 procs for 20000 steps with 16800 atoms

Pair  time (%) = 243.829 (65.5907)
Bond  time (%) = 2.12331 (0.571178)
Neigh time (%) = 0.813903 (0.218942)
Comm  time (%) = 100.692 (27.0864)
Outpt time (%) = 0.531927 (0.14309)
Other time (%) = 23.7533 (6.38972)

unfix		1
fix		1 all npt 300 300 0.0100 xyz 0 0 0.1000 drag 2.00
run		20000
Step Temp T_ave Press P_ave Lx Ly Lz Volume E_pair TotEng
280332     303.2484    300.62028    215.41815    436.44344    73.401376    73.401376    73.401376    395469.15   -24575.574   -23592.412
Averages over the last 101 of 202 rows, steps 290400 to 300332:
Temp T_ave Press P_ave Lx Ly Lz Volume E_pair TotEng
299.997 299.972 24.9946 23.533 73.8525 73.8525 73.8525 402806 -24575.2 -23592.4
Loop time of 366.674 on 48 procs for 20000 steps with 16800 atoms

Pair  time (%) = 235.779 (64.3021)
Bond  time (%) = 2.12586 (0.579769)
Neigh time (%) = 0.804842 (0.219498)
Comm  time (%) = 102.405 (27.9282)
Outpt time (%) = 0.529467 (0.144397)
Other time (%) = 25.0294 (6.82606)

unfix		1
fix		1 all npt 300 300 0.0100 xyz -500 -500 0.1000 drag 2.00
run		20000
Step Temp T_ave Press P_ave Lx Ly Lz Volume E_pair TotEng
300332    300.17847    299.83223    86.552938    73.619249    73.821005    73.821005    73.821005    402290.57   -24578.103   -23594.714
Averages over the last 101 of 202 rows, steps 310400 to 320332:
Temp T_ave Press P_ave Lx Ly Lz Volume E_pair TotEng
299.942 299.96 -522.37 -520.954 74.3679 74.3679 74.3679 411298 -24570.7 -23585.3
Loop time of 361.402 on 48 procs for 20000 steps with 16800 atoms

Pair  time (%) = 227.091 (62.8362)
Bond  time (%) = 2.12775 (0.588748)
Neigh time (%) = 0.773395 (0.213998)
Comm  time (%) = 104.665 (28.9609)
Outpt time (%) = 0.570862 (0.157958)
Other time (%) = 26.1735 (7.24221)

unfix		1
fix		1 all npt 300 300 0.0100 xyz -1000 -1000 0.1000 drag 2.00
run		20000
Step Temp T_ave Press P_ave Lx Ly Lz Volume E_pair TotEng
320332    298.72869    299.91219   -460.46972   -608.46461    74.303605    74.303605    74.303605    410232.11   -24573.145   -23590.706
Averages over the last 101 of 202 rows, steps 330400 to 340332:
Temp T_ave Press P_ave Lx Ly Lz Volume E_pair TotEng
300.13 300.123 -955.417 -952.979 74.8577 74.8577 74.8577 419480 -24568.7 -23581.2
Loop time of 348.64 on 48 procs for 20000 steps with 16800 atoms

Pair  time (%) = 219.192 (62.8708)
Bond  time (%) = 2.12481 (0.609458)
Neigh time (%) = 0.761258 (0.218351)
Comm  time (%) = 100.889 (28.9379)
Outpt time (%) = 0.523809 (0.150244)
Other time (%) = 25.1482 (7.21325)

unfix		1
fix		1 all npt 300 300 0.0100 xyz -1500 -1500 0.1000 drag 2.00
run		20000
Step Temp T_ave Press P_ave Lx Ly Lz Volume E_pair TotEng
340332    298.87344    299.55595   -1058.8157   -1034.4951    74.793261    74.793261    74.793261    418395.89   -24571.551   -23590.159
Averages over the last 101 of 202 rows, steps 350400 to 360332:
Temp T_ave Press P_ave Lx Ly Lz Volume E_pair TotEng
299.714 299.731 -1525.5 -1523.5 75.4023 75.4023 75.4023 428700 -24561.7 -23570.9
Loop time of 339.006 on 48 procs for 20000 steps with 16800 atoms

Pair  time (%) = 211.481 (62.3828)
Bond  time (%) = 2.12483 (0.626783)
Neigh time (%) = 0.768529 (0.226701)
Comm  time (%) = 99.8028 (29.4399)
Outpt time (%) = 0.516492 (0.152355)
Other time (%) = 24.3118 (7.17149)

unfix		1
fix		1 all npt 300 300 0.0100 xyz -2000 -2000 0.1000 drag 2.00
run		20000
Step Temp T_ave Press P_ave Lx Ly Lz Volume E_pair TotEng
360332    300.59902    300.12342   -1744.9894   -1570.0099    75.387324    75.387324    75.387324    428444.91   -24564.627   -23571.856
Averages over the last 101 of 202 rows, steps 370400 to 380332:
Temp T_ave Press P_ave Lx Ly Lz Volume E_pair TotEng
300.24 300.196 -2017.27 -2023.93 75.933 75.933 75.933 437817 -24557.2 -23562
Loop time of 330.555 on 48 procs for 20000 steps with 16800 atoms

Pair  time (%) = 203.649 (61.6083)
Bond  time (%) = 2.12635 (0.643268)
Neigh time (%) = 0.766942 (0.232016)
Comm  time (%) = 99.6092 (30.1339)
Outpt time (%) = 0.518709 (0.156921)
Other time (%) = 23.8845 (7.22558)

#########################################################################
clear
next a
next p
next q
next r
next s
next t
next v
jump in.EtOCSMethyl# EtOCSMethyl -- network connectivity scan -- with bulk modulus simulation

# trial parameter
variable a index 1.1 1.2 1.3 2.1 2.2 2.3 3.1 3.2 3.3
# EtOCSMethyl precursor start moleculeID parameter
variable p index 1 1 1 1 1 1 1 1 1
# EtOCSMethyl precursor end moleculeID parameter
variable q index 2000 2000 2000 2000 2000 2000 2000 2000 2000
# free O start atomID parameter
variable r index 10001 10001 10001 10001 10001 10001 10001 10001 10001
# free O end atomID parameter
variable s index 16800 16800 16800 17600 17600 17600 18400 18400 18400
# porogen start moleculeID parameter
variable t index 2001 2001 2001 2001 2001 2001 2001 2001 2001
# porogen end moleculeID parameter
variable v index 2000 2000 2000 2000 2000 2000 2000 2000 2000

log log_$a.lammps
log log_1.3.lammps
