#########################################################################
dimension 3
atom_style full

# bonded potentials
bond_style harmonic
angle_style harmonic
dihedral_style hybrid opls class2

boundary p p p
units metal
neighbor 2 bin
neigh_modify check yes

timestep 0.001

read_data data.EtOCSMethyl_2000_$a
read_data data.EtOCSMethyl_2000_1.3
  orthogonal box = (-4 -4 -4) to (136 136 136)
  16800 atoms
  8000 bonds
  6000 angles
  4000 dihedrals

#########################################################################
# number of EtOCSMethyl precursors (referenced by moleculeID)
group precursors molecule <> $p $q
group precursors molecule <> 1 $q
group precursors molecule <> 1 2000
10000 atoms in group precursors

# number of free O atoms (referenced by atomID)
group freeO id <> $r $s
group freeO id <> 10001 $s
group freeO id <> 10001 16800
6800 atoms in group freeO

# number of porogen molecules (referenced by moleculeID)
group porogen molecule <> $t $v
group porogen molecule <> 2001 $v
group porogen molecule <> 2001 2000
0 atoms in group porogen

group active union precursors freeO porogen
16800 atoms in group active
group activematrix union precursors freeO
16800 atoms in group activematrix
group inactive subtract all active
0 atoms in group inactive
delete_atoms group inactive
Deleted 0 atoms, new total = 16800

#########################################################################
#soft potential to push the atoms apart
pair_style soft 3
pair_coeff	* * 0 500 3

thermo_style custom step temp tave press pave lx ly lz vol epair etotal

fix 1		active nvt 6000 6000 0.0100 drag 2.00
thermo		1000
run		20000
Step Temp T_ave Press P_ave Lx Ly Lz Volume E_pair TotEng
0            0            0   -2.8414386   -2.8414386          140          140          140      2744000            0    11.848978
Averages over the last 11 of 21 rows, steps 10000 to 20000:
Temp T_ave Press P_ave Lx Ly Lz Volume E_pair TotEng
5996.17 5996.59 3722.92 3696.62 140 140 140 2.744e+06 36.6819 17112.7
Loop time of 40.7053 on 48 procs for 20000 steps with 16800 atoms

Pair  time (%) = 0.316098 (0.776553)
Bond  time (%) = 2.02241 (4.96841)
Neigh time (%) = 0.582057 (1.42993)
Comm  time (%) = 29.5814 (72.6721)
Outpt time (%) = 0.0273314 (0.0671445)
Other time (%) = 8.17603 (20.0859)

thermo		1
minimize		1e-4 10000 10000
Step Temp T_ave Press P_ave Lx Ly Lz Volume E_pair TotEng
20000    6003.6518    5995.7394    3644.1266    3724.9816          140          140          140      2744000    30.292205    17055.572
Loop time of 5.17708 on 48 procs for 300 steps with 16800 atoms

Minimization stats:
  E initial, next-to-last, final = 4019 65.0248 65.0217
  Gradient 2-norm init/final= 654.274 0.815985
  Gradient inf-norm init/final= 45.0112 0.0728231
  Iterations = 300
  Force evaluations = 1938

Pair  time (%) = 0.0669257 (1.29273)
Bond  time (%) = 0.207669 (4.01132)
Neigh time (%) = 0.000338505 (0.00653853)
Comm  time (%) = 2.55636 (49.3784)
Outpt time (%) = 0.414416 (8.00482)
Other time (%) = 1.93137 (37.3062)

#########################################################################
# simulated annealing to create structure
pair_style sw
pair_coeff * * OCS.sw Si O C

thermo		100

unfix		1
fix		1 active npt 9000 3000 0.0100 xyz 90000 60000 0.1000 drag 2.00
run		50000
Step Temp T_ave Press P_ave Lx Ly Lz Volume E_pair TotEng
20300    6003.6518    6003.6518    10852.532    5073.8627          140          140          140      2744000    3382.5408    16484.139
Averages over the last 251 of 501 rows, steps 45300 to 70300:
Temp T_ave Press P_ave Lx Ly Lz Volume E_pair TotEng
4501.43 4555.31 67561 67832.4 71.2064 71.2064 71.2064 361424 -14685.7 -1697.54
Loop time of 928.781 on 48 procs for 50000 steps with 16800 atoms

Pair  time (%) = 619.378 (66.6872)
Bond  time (%) = 5.2884 (0.569391)
Neigh time (%) = 10.7986 (1.16266)
Comm  time (%) = 242.3 (26.088)
Outpt time (%) = 0.68738 (0.0740088)
Other time (%) = 50.3282 (5.41873)

unfix		1
fix		1 active npt 3000 300 0.0100 xyz 60000 1 0.1000 drag 2.00
run		100000
Step Temp T_ave Press P_ave Lx Ly Lz Volume E_pair TotEng
70300    3020.1442    3052.4848      58165.5     60120.22    68.835067    68.835067    68.835067    326158.89   -19477.458   -10647.173
Averages over the last 501 of 1001 rows, steps 120300 to 170300:
Temp T_ave Press P_ave Lx Ly Lz Volume E_pair TotEng
975.117 987.296 15003.9 15270.5 70.276 70.276 70.276 347284 -23671.7 -20703.8
Loop time of 2310.9 on 48 procs for 100000 steps with 16800 atoms

Pair  time (%) = 1665.06 (72.0525)
Bond  time (%) = 10.6548 (0.461066)
Neigh time (%) = 11.7399 (0.508022)
Comm  time (%) = 503.097 (21.7706)
Outpt time (%) = 1.40198 (0.0606682)
Other time (%) = 118.944 (5.14708)

unfix		1
fix		1 all npt 300 300 0.01 xyz 1 1 0.1 drag 2
fix		2 active rdf 2000 EtOCSMethyl_rdf_$a.txt 100 1 1 1 2 2 1 1 3 3 1 2 3 3 2 2 2 3 3
fix		2 active rdf 2000 EtOCSMethyl_rdf_1.3.txt 100 1 1 1 2 2 1 1 3 3 1 2 3 3 2 2 2 3 3
dump		1 porogen xyz 10000 porogen_*_$a.xyz
dump		1 porogen xyz 10000 porogen_*_1.3.xyz
dump		2 active xyz 10000 EtOCSMethyl_*_$a.xyz
dump		2 active xyz 10000 EtOCSMethyl_*_1.3.xyz
dump		3 activematrix xyz 10000 EtOCSMethyl_matrix_*_$a.xyz
dump		3 activematrix xyz 10000 EtOCSMethyl_matrix_*_1.3.xyz
run		10000
Step Temp T_ave Press P_ave Lx Ly Lz Volume E_pair TotEng
170300    300.73069    312.23004   -112.78469    184.41705    73.384689    73.384689    73.384689    395199.49   -24573.128   -23583.795
Averages over the last 51 of 101 rows, steps 175300 to 180300:
Temp T_ave Press P_ave Lx Ly Lz Volume E_pair TotEng
300.034 300.124 -10.1461 -10.7788 73.6339 73.6339 73.6339 399240 -24577.7 -23591.3
Loop time of 183.259 on 48 procs for 10000 steps with 16800 atoms

Pair  time (%) = 120.301 (65.6452)
Bond  time (%) = 1.06202 (0.579518)
Neigh time (%) = 0.405217 (0.221117)
Comm  time (%) = 49.3366 (26.9218)
Outpt time (%) = 0.265061 (0.144637)
Other time (%) = 11.8892 (6.48768)

undump		1
undump		2
undump		3

#########################################################################
# remove the porogen molecules from the simulation and equilibrate the structure

delete_atoms group porogen
Deleted 0 atoms, new total = 16800

dump		1 active xyz 5000 EtOCSMethyl_*_$a.xyz
dump		1 active xyz 5000 EtOCSMethyl_*_1.3.xyz

unfix		1
fix		1 all npt 300 300 0.01 xyz 1 1 0.1 drag 2
run		20000
Step Temp T_ave Press P_ave Lx Ly Lz Volume E_pair TotEng
180300    296.61429    299.96873    187.49482    25.849098    73.705568    73.705568    73.705568    400406.29   -24577.214   -23594.711
Averages over the last 101 of 201 rows, steps 190300 to 200300:
Temp T_ave Press P_ave Lx Ly Lz Volume E_pair TotEng
300.012 300.048 7.9042 9.4139 73.6932 73.6932 73.6932 400205 -24580.2 -23597.1
Loop time of 362.748 on 48 procs for 20000 steps with 16800 atoms

Pair  time (%) = 238.314 (65.6968)
Bond  time (%) = 2.126 (0.586082)
Neigh time (%) = 0.817981 (0.225496)
Comm  time (%) = 96.6799 (26.6521)
Outpt time (%) = 0.521817 (0.143851)
Other time (%) = 24.2887 (6.69574)

#########################################################################
#apply setpwise pressure to measure modulus

unfix		1
fix		1 all npt 300 300 0.0100 xyz 2000 2000 0.1000 drag 2.00
run		20000
Step Temp T_ave Press P_ave Lx Ly Lz Volume E_pair TotEng
200300    299.19593    299.91035    153.27205    95.072967    73.699746    73.699746    73.699746    400311.41   -24579.475   -23599.208
Averages over the last 101 of 201 rows, steps 210300 to 220300:
Temp T_ave Press P_ave Lx Ly Lz Volume E_pair TotEng
300.092 300.038 2001.82 2003.54 72.2269 72.2269 72.2269 376788 -24585 -23606.9
Loop time of 388.564 on 48 procs for 20000 steps with 16800 atoms

Pair  time (%) = 265.843 (68.4167)
Bond  time (%) = 2.12413 (0.546662)
Neigh time (%) = 0.81937 (0.210871)
Comm  time (%) = 94.8462 (24.4094)
Outpt time (%) = 0.544093 (0.140026)
Other time (%) = 24.3876 (6.27634)

unfix		1
fix		1 all npt 300 300 0.0100 xyz 1500 1500 0.1000 drag 2.00
run		20000
Step Temp T_ave Press P_ave Lx Ly Lz Volume E_pair TotEng
220300    298.32271    300.27623    2088.0841    1982.0112    72.251197    72.251197    72.251197    377168.26   -24590.903   -23612.621
Averages over the last 101 of 201 rows, steps 230300 to 240300:
Temp T_ave Press P_ave Lx Ly Lz Volume E_pair TotEng
299.999 299.959 1482.56 1484.66 72.5341 72.5341 72.5341 381617 -24587 -23608.4
Loop time of 386.268 on 48 procs for 20000 steps with 16800 atoms

Pair  time (%) = 261.389 (67.6704)
Bond  time (%) = 2.12512 (0.550167)
Neigh time (%) = 0.816787 (0.211456)
Comm  time (%) = 96.7762 (25.0542)
Outpt time (%) = 0.55555 (0.143825)
Other time (%) = 24.6053 (6.37001)

unfix		1
fix		1 all npt 300 300 0.0100 xyz 1000 1000 0.1000 drag 2.00
run		20000
Step Temp T_ave Press P_ave Lx Ly Lz Volume E_pair TotEng
240300    300.07132    300.98973     1148.189    1379.8069    72.534462    72.534462    72.534462    381621.81   -24587.395   -23609.457
Averages over the last 101 of 201 rows, steps 250300 to 260300:
Temp T_ave Press P_ave Lx Ly Lz Volume E_pair TotEng
299.959 299.914 1016.23 1021.71 72.9018 72.9018 72.9018 387450 -24584.9 -23605.2
Loop time of 378.587 on 48 procs for 20000 steps with 16800 atoms

Pair  time (%) = 254.016 (67.0957)
Bond  time (%) = 2.12719 (0.561875)
Neigh time (%) = 0.834575 (0.220445)
Comm  time (%) = 96.5452 (25.5014)
Outpt time (%) = 0.524439 (0.138525)
Other time (%) = 24.54 (6.482)

unfix		1
fix		1 all npt 300 300 0.0100 xyz 500 500 0.1000 drag 2.00
run		20000
Step Temp T_ave Press P_ave Lx Ly Lz Volume E_pair TotEng
260300     299.0081    299.69531    1207.3923    1029.2808    72.886347    72.886347    72.886347    387202.86   -24578.831   -23602.466
Averages over the last 101 of 201 rows, steps 270300 to 280300:
Temp T_ave Press P_ave Lx Ly Lz Volume E_pair TotEng
300.046 300.078 488.361 480.068 73.2943 73.2943 73.2943 393741 -24583.4 -23602.7
Loop time of 371.324 on 48 procs for 20000 steps with 16800 atoms

Pair  time (%) = 246.316 (66.3346)
Bond  time (%) = 2.12579 (0.572489)
Neigh time (%) = 0.821249 (0.221168)
Comm  time (%) = 96.7543 (26.0566)
Outpt time (%) = 0.532281 (0.143347)
Other time (%) = 24.7741 (6.67183)

unfix		1
fix		1 all npt 300 300 0.0100 xyz 0 0 0.1000 drag 2.00
run		20000
Step Temp T_ave Press P_ave Lx Ly Lz Volume E_pair TotEng
280300    297.56913    299.85302    742.47162    577.60721    73.301508    73.301508    73.301508    393857.15   -24586.204    -23602.19
Averages over the last 101 of 201 rows, steps 290300 to 300300:
Temp T_ave Press P_ave Lx Ly Lz Volume E_pair TotEng
300.217 300.14 -35.645 -37.6702 73.7452 73.7452 73.7452 401053 -24581.6 -23599.4
Loop time of 362.647 on 48 procs for 20000 steps with 16800 atoms

Pair  time (%) = 238.247 (65.6967)
Bond  time (%) = 2.1223 (0.585225)
Neigh time (%) = 0.818344 (0.225659)
Comm  time (%) = 96.7114 (26.6682)
Outpt time (%) = 0.524354 (0.144591)
Other time (%) = 24.2232 (6.67956)

unfix		1
fix		1 all npt 300 300 0.0100 xyz -500 -500 0.1000 drag 2.00
run		20000
Step Temp T_ave Press P_ave Lx Ly Lz Volume E_pair TotEng
300300     299.4059    300.64311   -9.4936792   -143.83312    73.681585    73.681585    73.681585    400015.56    -24580.02   -23599.772
Averages over the last 101 of 201 rows, steps 310300 to 320300:
Temp T_ave Press P_ave Lx Ly Lz Volume E_pair TotEng
300.145 300.138 -501.8 -502.492 74.2069 74.2069 74.2069 408634 -24579 -23594.6
Loop time of 354.394 on 48 procs for 20000 steps with 16800 atoms

Pair  time (%) = 230.115 (64.932)
Bond  time (%) = 2.12128 (0.598567)
Neigh time (%) = 0.765059 (0.215878)
Comm  time (%) = 96.7262 (27.2934)
Outpt time (%) = 0.548633 (0.154809)
Other time (%) = 24.1176 (6.80532)

unfix		1
fix		1 all npt 300 300 0.0100 xyz -1000 -1000 0.1000 drag 2.00
run		20000
Step Temp T_ave Press P_ave Lx Ly Lz Volume E_pair TotEng
320300    299.08666    299.53979   -591.98212   -506.30446    74.175527    74.175527    74.175527     408114.4   -24580.693   -23597.885
Averages over the last 101 of 201 rows, steps 330300 to 340300:
Temp T_ave Press P_ave Lx Ly Lz Volume E_pair TotEng
300.001 299.954 -983.592 -981.502 74.6745 74.6745 74.6745 416406 -24575.1 -23587.7
Loop time of 349.717 on 48 procs for 20000 steps with 16800 atoms

Pair  time (%) = 222.429 (63.6024)
Bond  time (%) = 2.11732 (0.605438)
Neigh time (%) = 0.768319 (0.219697)
Comm  time (%) = 99.3582 (28.411)
Outpt time (%) = 0.519637 (0.148588)
Other time (%) = 24.525 (7.0128)

unfix		1
fix		1 all npt 300 300 0.0100 xyz -1500 -1500 0.1000 drag 2.00
run		20000
Step Temp T_ave Press P_ave Lx Ly Lz Volume E_pair TotEng
340300    301.87628    299.78345   -1139.2476   -1031.3521    74.754949    74.754949    74.754949    417753.26   -24573.891   -23577.685
Averages over the last 101 of 201 rows, steps 350300 to 360300:
Temp T_ave Press P_ave Lx Ly Lz Volume E_pair TotEng
300.353 300.368 -1479.27 -1481.24 75.2713 75.2713 75.2713 426470 -24569.1 -23577.2
Loop time of 342.185 on 48 procs for 20000 steps with 16800 atoms

Pair  time (%) = 213.59 (62.4195)
Bond  time (%) = 2.11611 (0.618411)
Neigh time (%) = 0.782851 (0.22878)
Comm  time (%) = 101.275 (29.5965)
Outpt time (%) = 0.602524 (0.176081)
Other time (%) = 23.8184 (6.96068)

unfix		1
fix		1 all npt 300 300 0.0100 xyz -2000 -2000 0.1000 drag 2.00
run		20000
Step Temp T_ave Press P_ave Lx Ly Lz Volume E_pair TotEng
360300    299.05626    299.93676   -1713.0876   -1436.5112    75.215794    75.215794    75.215794    425527.01   -24566.562   -23575.833
Averages over the last 101 of 201 rows, steps 370300 to 380300:
Temp T_ave Press P_ave Lx Ly Lz Volume E_pair TotEng
299.836 299.829 -1990.98 -1991.08 75.7337 75.7337 75.7337 434378 -24564.5 -23569.4
Loop time of 338.662 on 48 procs for 20000 steps with 16800 atoms

Pair  time (%) = 206.768 (61.0543)
Bond  time (%) = 2.12134 (0.626388)
Neigh time (%) = 0.764657 (0.225787)
Comm  time (%) = 104.136 (30.7491)
Outpt time (%) = 0.549608 (0.162288)
Other time (%) = 24.323 (7.18209)

#########################################################################
clear
next a
next p
next q
next r
next s
next t
next v
jump in.EtOCSMethyl# EtOCSMethyl -- network connectivity scan -- with bulk modulus simulation

# trial parameter
variable a index 1.1 1.2 1.3 2.1 2.2 2.3 3.1 3.2 3.3
# EtOCSMethyl precursor start moleculeID parameter
variable p index 1 1 1 1 1 1 1 1 1
# EtOCSMethyl precursor end moleculeID parameter
variable q index 2000 2000 2000 2000 2000 2000 2000 2000 2000
# free O start atomID parameter
variable r index 10001 10001 10001 10001 10001 10001 10001 10001 10001
# free O end atomID parameter
variable s index 16800 16800 16800 17600 17600 17600 18400 18400 18400
# porogen start moleculeID parameter
variable t index 2001 2001 2001 2001 2001 2001 2001 2001 2001
# porogen end moleculeID parameter
variable v index 2000 2000 2000 2000 2000 2000 2000 2000 2000

log log_$a.lammps
log log_2.1.lammps
