#########################################################################
dimension 3
atom_style full

# bonded potentials
bond_style harmonic
angle_style harmonic
dihedral_style hybrid opls class2

boundary p p p
units metal
neighbor 2 bin
neigh_modify check yes

timestep 0.001

read_data data.EtOCSMethyl_2000_$a
read_data data.EtOCSMethyl_2000_2.2
  orthogonal box = (-4 -4 -4) to (137 137 137)
  17600 atoms
  8000 bonds
  6000 angles
  4000 dihedrals

#########################################################################
# number of EtOCSMethyl precursors (referenced by moleculeID)
group precursors molecule <> $p $q
group precursors molecule <> 1 $q
group precursors molecule <> 1 2000
10000 atoms in group precursors

# number of free O atoms (referenced by atomID)
group freeO id <> $r $s
group freeO id <> 10001 $s
group freeO id <> 10001 17600
7600 atoms in group freeO

# number of porogen molecules (referenced by moleculeID)
group porogen molecule <> $t $v
group porogen molecule <> 2001 $v
group porogen molecule <> 2001 2000
0 atoms in group porogen

group active union precursors freeO porogen
17600 atoms in group active
group activematrix union precursors freeO
17600 atoms in group activematrix
group inactive subtract all active
0 atoms in group inactive
delete_atoms group inactive
Deleted 0 atoms, new total = 17600

#########################################################################
#soft potential to push the atoms apart
pair_style soft 3
pair_coeff	* * 0 500 3

thermo_style custom step temp tave press pave lx ly lz vol epair etotal

fix 1		active nvt 6000 6000 0.0100 drag 2.00
thermo		1000
run		20000
Step Temp T_ave Press P_ave Lx Ly Lz Volume E_pair TotEng
0            0            0   -2.7814103   -2.7814103          141          141          141      2803221            0    11.848978
Averages over the last 11 of 21 rows, steps 10000 to 20000:
Temp T_ave Press P_ave Lx Ly Lz Volume E_pair TotEng
5999.8 6002.34 3960.77 3974.66 141 141 141 2.80322e+06 43.501 17705.2
Loop time of 41.4641 on 48 procs for 20000 steps with 17600 atoms

Pair  time (%) = 0.340153 (0.820356)
Bond  time (%) = 2.02168 (4.87574)
Neigh time (%) = 0.599663 (1.44622)
Comm  time (%) = 30.1188 (72.6384)
Outpt time (%) = 0.0273734 (0.0660171)
Other time (%) = 8.35638 (20.1533)

thermo		1
minimize		1e-4 10000 10000
Step Temp T_ave Press P_ave Lx Ly Lz Volume E_pair TotEng
20000    5997.8949    5998.0726    3974.0992    3968.1528          141          141          141      2803221    44.357735    17696.253
Loop time of 5.37531 on 48 procs for 313 steps with 17600 atoms

Minimization stats:
  E initial, next-to-last, final = 4051.95 64.7181 64.7158
  Gradient 2-norm init/final= 678.86 0.812883
  Gradient inf-norm init/final= 54.893 0.0493407
  Iterations = 313
  Force evaluations = 2002

Pair  time (%) = 0.0732155 (1.36207)
Bond  time (%) = 0.21465 (3.99326)
Neigh time (%) = 0.000353009 (0.00656722)
Comm  time (%) = 2.65337 (49.3622)
Outpt time (%) = 0.421272 (7.83716)
Other time (%) = 2.01245 (37.4387)

#########################################################################
# simulated annealing to create structure
pair_style sw
pair_coeff * * OCS.sw Si O C

thermo		100

unfix		1
fix		1 active npt 9000 3000 0.0100 xyz 90000 60000 0.1000 drag 2.00
run		50000
Step Temp T_ave Press P_ave Lx Ly Lz Volume E_pair TotEng
20313    5997.8949    5997.8949    11319.852    5198.0365          141          141          141      2803221    3689.2681    17398.291
Averages over the last 251 of 502 rows, steps 45400 to 70313:
Temp T_ave Press P_ave Lx Ly Lz Volume E_pair TotEng
4491.43 4545.65 67318.6 67580 72.3509 72.3509 72.3509 379127 -14989.6 -1564.75
Loop time of 967.259 on 48 procs for 50000 steps with 17600 atoms

Pair  time (%) = 648.182 (67.0123)
Bond  time (%) = 5.30351 (0.548303)
Neigh time (%) = 11.3402 (1.17241)
Comm  time (%) = 250.255 (25.8726)
Outpt time (%) = 0.698791 (0.0722445)
Other time (%) = 51.4792 (5.32217)

unfix		1
fix		1 active npt 3000 300 0.0100 xyz 60000 1 0.1000 drag 2.00
run		100000
Step Temp T_ave Press P_ave Lx Ly Lz Volume E_pair TotEng
70313    2983.4035    3042.0208    62939.489    60060.937    69.933775    69.933775    69.933775    342027.41    -19601.19    -10547.07
Averages over the last 501 of 1002 rows, steps 120400 to 170313:
Temp T_ave Press P_ave Lx Ly Lz Volume E_pair TotEng
972.798 984.943 14914.1 15186.2 71.8899 71.8899 71.8899 372028 -23724.6 -20685.7
Loop time of 2375.71 on 48 procs for 100000 steps with 17600 atoms

Pair  time (%) = 1702.19 (71.6497)
Bond  time (%) = 10.6548 (0.448491)
Neigh time (%) = 12.2785 (0.516835)
Comm  time (%) = 527.204 (22.1914)
Outpt time (%) = 1.66423 (0.0700518)
Other time (%) = 121.72 (5.12351)

unfix		1
fix		1 all npt 300 300 0.01 xyz 1 1 0.1 drag 2
fix		2 active rdf 2000 EtOCSMethyl_rdf_$a.txt 100 1 1 1 2 2 1 1 3 3 1 2 3 3 2 2 2 3 3
fix		2 active rdf 2000 EtOCSMethyl_rdf_2.2.txt 100 1 1 1 2 2 1 1 3 3 1 2 3 3 2 2 2 3 3
dump		1 porogen xyz 10000 porogen_*_$a.xyz
dump		1 porogen xyz 10000 porogen_*_2.2.xyz
dump		2 active xyz 10000 EtOCSMethyl_*_$a.xyz
dump		2 active xyz 10000 EtOCSMethyl_*_2.2.xyz
dump		3 activematrix xyz 10000 EtOCSMethyl_matrix_*_$a.xyz
dump		3 activematrix xyz 10000 EtOCSMethyl_matrix_*_2.2.xyz
run		10000
Step Temp T_ave Press P_ave Lx Ly Lz Volume E_pair TotEng
170313    301.51259    309.48392   -102.07832    200.20482    77.341912    77.341912    77.341912    462641.64   -24628.286   -23634.953
Averages over the last 51 of 102 rows, steps 175400 to 180313:
Temp T_ave Press P_ave Lx Ly Lz Volume E_pair TotEng
299.837 299.928 1.54627 17.7283 78.7622 78.7622 78.7622 488602 -24629 -23642.5
Loop time of 164.645 on 48 procs for 10000 steps with 17600 atoms

Pair  time (%) = 95.8783 (58.2333)
Bond  time (%) = 1.06702 (0.648071)
Neigh time (%) = 0.394974 (0.239894)
Comm  time (%) = 52.8365 (32.0911)
Outpt time (%) = 0.272591 (0.165563)
Other time (%) = 14.1958 (8.62208)

undump		1
undump		2
undump		3

#########################################################################
# remove the porogen molecules from the simulation and equilibrate the structure

delete_atoms group porogen
Deleted 0 atoms, new total = 17600

dump		1 active xyz 5000 EtOCSMethyl_*_$a.xyz
dump		1 active xyz 5000 EtOCSMethyl_*_2.2.xyz

unfix		1
fix		1 all npt 300 300 0.01 xyz 1 1 0.1 drag 2
run		20000
Step Temp T_ave Press P_ave Lx Ly Lz Volume E_pair TotEng
180313    299.81921    299.38338   -201.09226   -42.122075    78.880451    78.880451    78.880451    490804.07   -24628.551   -23644.935
Averages over the last 101 of 202 rows, steps 190400 to 200313:
Temp T_ave Press P_ave Lx Ly Lz Volume E_pair TotEng
300.046 300.009 -12.0047 -13.3364 79.0566 79.0566 79.0566 494100 -24630.6 -23644.3
Loop time of 324.572 on 48 procs for 20000 steps with 17600 atoms

Pair  time (%) = 185.732 (57.2236)
Bond  time (%) = 2.1344 (0.657604)
Neigh time (%) = 0.786992 (0.242471)
Comm  time (%) = 104.814 (32.2929)
Outpt time (%) = 0.535657 (0.165035)
Other time (%) = 30.5694 (9.41839)

#########################################################################
#apply setpwise pressure to measure modulus

unfix		1
fix		1 all npt 300 300 0.0100 xyz 2000 2000 0.1000 drag 2.00
run		20000
Step Temp T_ave Press P_ave Lx Ly Lz Volume E_pair TotEng
200313    301.57633    300.43212    29.535489    109.97713    79.109918    79.109918    79.109918    495099.86   -24634.291    -23645.21
Averages over the last 101 of 202 rows, steps 210400 to 220313:
Temp T_ave Press P_ave Lx Ly Lz Volume E_pair TotEng
299.891 299.897 1959.92 1953.04 75.1509 75.1509 75.1509 424428 -24640.5 -23661.8
Loop time of 369.097 on 48 procs for 20000 steps with 17600 atoms

Pair  time (%) = 237.554 (64.361)
Bond  time (%) = 2.13217 (0.577673)
Neigh time (%) = 0.852792 (0.231048)
Comm  time (%) = 100.458 (27.2174)
Outpt time (%) = 0.563581 (0.152692)
Other time (%) = 27.5356 (7.46025)

unfix		1
fix		1 all npt 300 300 0.0100 xyz 1500 1500 0.1000 drag 2.00
run		20000
Step Temp T_ave Press P_ave Lx Ly Lz Volume E_pair TotEng
220313    296.25601    300.22375    2156.3135    2055.4114    75.042735    75.042735    75.042735    422596.56   -24636.277   -23662.481
Averages over the last 101 of 202 rows, steps 230400 to 240313:
Temp T_ave Press P_ave Lx Ly Lz Volume E_pair TotEng
299.941 299.94 1510.69 1518.02 75.7902 75.7902 75.7902 435352 -24640.1 -23660.9
Loop time of 361.795 on 48 procs for 20000 steps with 17600 atoms

Pair  time (%) = 231.474 (63.9794)
Bond  time (%) = 2.13166 (0.58919)
Neigh time (%) = 0.862159 (0.2383)
Comm  time (%) = 100.493 (27.7762)
Outpt time (%) = 0.561846 (0.155294)
Other time (%) = 26.2725 (7.26169)

unfix		1
fix		1 all npt 300 300 0.0100 xyz 1000 1000 0.1000 drag 2.00
run		20000
Step Temp T_ave Press P_ave Lx Ly Lz Volume E_pair TotEng
240313    297.84232    300.16948    1396.5615    1401.7212    75.811351    75.811351    75.811351    435715.19   -24638.127   -23661.669
Averages over the last 101 of 202 rows, steps 250400 to 260313:
Temp T_ave Press P_ave Lx Ly Lz Volume E_pair TotEng
300.005 300.007 956.83 960.696 76.6421 76.6421 76.6421 450197 -24638.5 -23658.7
Loop time of 351.297 on 48 procs for 20000 steps with 17600 atoms

Pair  time (%) = 218.553 (62.2132)
Bond  time (%) = 2.12836 (0.605857)
Neigh time (%) = 0.843648 (0.240152)
Comm  time (%) = 102.145 (29.0766)
Outpt time (%) = 0.562481 (0.160116)
Other time (%) = 27.0642 (7.70408)

unfix		1
fix		1 all npt 300 300 0.0100 xyz 500 500 0.1000 drag 2.00
run		20000
Step Temp T_ave Press P_ave Lx Ly Lz Volume E_pair TotEng
260313    297.56772    299.75517    824.50723    1011.2874    76.564915    76.564915    76.564915    448837.79    -24635.42    -23663.14
Averages over the last 101 of 202 rows, steps 270400 to 280313:
Temp T_ave Press P_ave Lx Ly Lz Volume E_pair TotEng
299.802 299.813 510.604 508.584 77.789 77.789 77.789 470711 -24634.9 -23654.5
Loop time of 341.625 on 48 procs for 20000 steps with 17600 atoms

Pair  time (%) = 203.162 (59.4691)
Bond  time (%) = 2.12919 (0.623252)
Neigh time (%) = 0.781258 (0.228689)
Comm  time (%) = 106.784 (31.2575)
Outpt time (%) = 0.587722 (0.172037)
Other time (%) = 28.1821 (8.24941)

unfix		1
fix		1 all npt 300 300 0.0100 xyz 0 0 0.1000 drag 2.00
run		20000
Step Temp T_ave Press P_ave Lx Ly Lz Volume E_pair TotEng
280313    301.48881    299.58033    258.45816    567.23244    77.815763    77.815763    77.815763    471197.24   -24635.019   -23654.876
Averages over the last 101 of 202 rows, steps 290400 to 300313:
Temp T_ave Press P_ave Lx Ly Lz Volume E_pair TotEng
300.058 300.09 5.08672 3.679 79.1208 79.1208 79.1208 495306 -24631.5 -23646.7
Loop time of 319.762 on 48 procs for 20000 steps with 17600 atoms

Pair  time (%) = 186.254 (58.2479)
Bond  time (%) = 2.1277 (0.665401)
Neigh time (%) = 0.789748 (0.24698)
Comm  time (%) = 103.56 (32.3865)
Outpt time (%) = 0.581043 (0.181711)
Other time (%) = 26.4491 (8.27152)

unfix		1
fix		1 all npt 300 300 0.0100 xyz -500 -500 0.1000 drag 2.00
run		20000
Step Temp T_ave Press P_ave Lx Ly Lz Volume E_pair TotEng
300313    299.46639    300.29326   -69.472883   -26.845236    79.185971    79.185971    79.185971    496529.14   -24629.632   -23643.915
Averages over the last 101 of 202 rows, steps 310400 to 320313:
Temp T_ave Press P_ave Lx Ly Lz Volume E_pair TotEng
299.947 299.977 -509.494 -506.508 80.4876 80.4876 80.4876 521420 -24625 -23636.6
Loop time of 311.311 on 48 procs for 20000 steps with 17600 atoms

Pair  time (%) = 171.678 (55.1467)
Bond  time (%) = 2.12909 (0.683911)
Neigh time (%) = 0.77649 (0.249426)
Comm  time (%) = 105.35 (33.8408)
Outpt time (%) = 0.531235 (0.170645)
Other time (%) = 30.8462 (9.90847)

unfix		1
fix		1 all npt 300 300 0.0100 xyz -1000 -1000 0.1000 drag 2.00
run		20000
Step Temp T_ave Press P_ave Lx Ly Lz Volume E_pair TotEng
320313    300.92529    299.86496   -487.22966   -548.07117    80.489733    80.489733    80.489733    521460.55   -24629.012   -23639.022
Averages over the last 101 of 202 rows, steps 330400 to 340313:
Temp T_ave Press P_ave Lx Ly Lz Volume E_pair TotEng
300.205 300.153 -974.359 -977.049 81.9927 81.9927 81.9927 551222 -24618.5 -23625.8
Loop time of 303.243 on 48 procs for 20000 steps with 17600 atoms

Pair  time (%) = 159.29 (52.5288)
Bond  time (%) = 2.12641 (0.701222)
Neigh time (%) = 0.737879 (0.243329)
Comm  time (%) = 108.578 (35.8056)
Outpt time (%) = 0.537451 (0.177234)
Other time (%) = 31.9733 (10.5438)

unfix		1
fix		1 all npt 300 300 0.0100 xyz -1500 -1500 0.1000 drag 2.00
run		20000
Step Temp T_ave Press P_ave Lx Ly Lz Volume E_pair TotEng
340313    299.88383    300.47196   -734.23407   -935.60004    81.981145    81.981145    81.981145    550987.74   -24618.554   -23627.466
Averages over the last 101 of 202 rows, steps 350400 to 360313:
Temp T_ave Press P_ave Lx Ly Lz Volume E_pair TotEng
299.847 299.826 -1503.54 -1508.19 83.3438 83.3438 83.3438 578923 -24606.3 -23609.6
Loop time of 293.56 on 48 procs for 20000 steps with 17600 atoms

Pair  time (%) = 149.496 (50.9251)
Bond  time (%) = 2.1244 (0.723667)
Neigh time (%) = 0.741277 (0.252513)
Comm  time (%) = 111.486 (37.9773)
Outpt time (%) = 0.538461 (0.183424)
Other time (%) = 29.174 (9.938)

unfix		1
fix		1 all npt 300 300 0.0100 xyz -2000 -2000 0.1000 drag 2.00
run		20000
Step Temp T_ave Press P_ave Lx Ly Lz Volume E_pair TotEng
360313    300.07141    300.07948   -1331.5455   -1470.2258    83.422388    83.422388    83.422388    580560.99   -24607.425   -23612.403
Averages over the last 101 of 202 rows, steps 370400 to 380313:
Temp T_ave Press P_ave Lx Ly Lz Volume E_pair TotEng
300.178 300.167 -2023.14 -2026.21 84.4961 84.4961 84.4961 603271 -24595.6 -23590.2
Loop time of 290.383 on 48 procs for 20000 steps with 17600 atoms

Pair  time (%) = 141.612 (48.7672)
Bond  time (%) = 2.11477 (0.728268)
Neigh time (%) = 0.717125 (0.246959)
Comm  time (%) = 113.247 (38.9992)
Outpt time (%) = 0.53184 (0.183151)
Other time (%) = 32.1606 (11.0752)

#########################################################################
clear
next a
next p
next q
next r
next s
next t
next v
jump in.EtOCSMethyl# EtOCSMethyl -- network connectivity scan -- with bulk modulus simulation

# trial parameter
variable a index 1.1 1.2 1.3 2.1 2.2 2.3 3.1 3.2 3.3
# EtOCSMethyl precursor start moleculeID parameter
variable p index 1 1 1 1 1 1 1 1 1
# EtOCSMethyl precursor end moleculeID parameter
variable q index 2000 2000 2000 2000 2000 2000 2000 2000 2000
# free O start atomID parameter
variable r index 10001 10001 10001 10001 10001 10001 10001 10001 10001
# free O end atomID parameter
variable s index 16800 16800 16800 17600 17600 17600 18400 18400 18400
# porogen start moleculeID parameter
variable t index 2001 2001 2001 2001 2001 2001 2001 2001 2001
# porogen end moleculeID parameter
variable v index 2000 2000 2000 2000 2000 2000 2000 2000 2000

log log_$a.lammps
log log_2.3.lammps
