#########################################################################
dimension 3
atom_style full

# bonded potentials
bond_style harmonic
angle_style harmonic
dihedral_style hybrid opls class2

boundary p p p
units metal
neighbor 2 bin
neigh_modify check yes

timestep 0.001

read_data data.EtOCSMethyl_2000_$a
read_data data.EtOCSMethyl_2000_2.3
  orthogonal box = (-4 -4 -4) to (137 137 137)
  17600 atoms
  8000 bonds
  6000 angles
  4000 dihedrals

#########################################################################
# number of EtOCSMethyl precursors (referenced by moleculeID)
group precursors molecule <> $p $q
group precursors molecule <> 1 $q
group precursors molecule <> 1 2000
10000 atoms in group precursors

# number of free O atoms (referenced by atomID)
group freeO id <> $r $s
group freeO id <> 10001 $s
group freeO id <> 10001 17600
7600 atoms in group freeO

# number of porogen molecules (referenced by moleculeID)
group porogen molecule <> $t $v
group porogen molecule <> 2001 $v
group porogen molecule <> 2001 2000
0 atoms in group porogen

group active union precursors freeO porogen
17600 atoms in group active
group activematrix union precursors freeO
17600 atoms in group activematrix
group inactive subtract all active
0 atoms in group inactive
delete_atoms group inactive
Deleted 0 atoms, new total = 17600

#########################################################################
#soft potential to push the atoms apart
pair_style soft 3
pair_coeff	* * 0 500 3

thermo_style custom step temp tave press pave lx ly lz vol epair etotal

fix 1		active nvt 6000 6000 0.0100 drag 2.00
thermo		1000
run		20000
Step Temp T_ave Press P_ave Lx Ly Lz Volume E_pair TotEng
0            0            0   -2.7814103   -2.7814103          141          141          141      2803221            0    11.848978
Averages over the last 11 of 21 rows, steps 10000 to 20000:
Temp T_ave Press P_ave Lx Ly Lz Volume E_pair TotEng
5999.35 5999.19 3960.91 3970.21 141 141 141 2.80322e+06 41.4923 17724.2
Loop time of 41.3103 on 48 procs for 20000 steps with 17600 atoms

Pair  time (%) = 0.338309 (0.818946)
Bond  time (%) = 2.01354 (4.87418)
Neigh time (%) = 0.597104 (1.44541)
Comm  time (%) = 29.9098 (72.4029)
Outpt time (%) = 0.02638 (0.0638581)
Other time (%) = 8.42508 (20.3947)

thermo		1
minimize		1e-4 10000 10000
Step Temp T_ave Press P_ave Lx Ly Lz Volume E_pair TotEng
20000    6009.3669    6000.0826    4291.3859     3977.386          141          141          141      2803221    41.342743    17712.688
Loop time of 5.69538 on 48 procs for 308 steps with 17600 atoms

Minimization stats:
  E initial, next-to-last, final = 4042.28 65.2371 65.2338
  Gradient 2-norm init/final= 670.894 0.820347
  Gradient inf-norm init/final= 43.4405 0.0522184
  Iterations = 308
  Force evaluations = 1958

Pair  time (%) = 0.071168 (1.24957)
Bond  time (%) = 0.20867 (3.66384)
Neigh time (%) = 0.000353744 (0.00621106)
Comm  time (%) = 2.67063 (46.8911)
Outpt time (%) = 0.40454 (7.10295)
Other time (%) = 2.34002 (41.0863)

#########################################################################
# simulated annealing to create structure
pair_style sw
pair_coeff * * OCS.sw Si O C

thermo		100

unfix		1
fix		1 active npt 9000 3000 0.0100 xyz 90000 60000 0.1000 drag 2.00
run		50000
Step Temp T_ave Press P_ave Lx Ly Lz Volume E_pair TotEng
20308    6009.3669    6009.3669    11326.873    5207.9959          141          141          141      2803221      3681.86    17417.498
Averages over the last 251 of 502 rows, steps 45400 to 70308:
Temp T_ave Press P_ave Lx Ly Lz Volume E_pair TotEng
4490.09 4543.88 67401.1 67654 72.3467 72.3467 72.3467 379057 -14990.5 -1565.81
Loop time of 960.847 on 48 procs for 50000 steps with 17600 atoms

Pair  time (%) = 645.502 (67.1804)
Bond  time (%) = 5.29798 (0.551386)
Neigh time (%) = 11.3254 (1.17869)
Comm  time (%) = 246.953 (25.7016)
Outpt time (%) = 0.678915 (0.0706579)
Other time (%) = 51.0908 (5.31726)

unfix		1
fix		1 active npt 3000 300 0.0100 xyz 60000 1 0.1000 drag 2.00
run		100000
Step Temp T_ave Press P_ave Lx Ly Lz Volume E_pair TotEng
70308    3000.6915    3050.2431    63482.257    60325.058    69.941371    69.941371    69.941371    342138.87   -19629.503   -10500.075
Averages over the last 501 of 1002 rows, steps 120400 to 170308:
Temp T_ave Press P_ave Lx Ly Lz Volume E_pair TotEng
972.566 984.66 14978.5 15247.6 71.9142 71.9142 71.9142 372419 -23724.7 -20687.2
Loop time of 2352.87 on 48 procs for 100000 steps with 17600 atoms

Pair  time (%) = 1693.37 (71.9705)
Bond  time (%) = 10.6644 (0.453253)
Neigh time (%) = 12.3196 (0.5236)
Comm  time (%) = 516.881 (21.9681)
Outpt time (%) = 1.37124 (0.0582797)
Other time (%) = 118.259 (5.02618)

unfix		1
fix		1 all npt 300 300 0.01 xyz 1 1 0.1 drag 2
fix		2 active rdf 2000 EtOCSMethyl_rdf_$a.txt 100 1 1 1 2 2 1 1 3 3 1 2 3 3 2 2 2 3 3
fix		2 active rdf 2000 EtOCSMethyl_rdf_2.3.txt 100 1 1 1 2 2 1 1 3 3 1 2 3 3 2 2 2 3 3
dump		1 porogen xyz 10000 porogen_*_$a.xyz
dump		1 porogen xyz 10000 porogen_*_2.3.xyz
dump		2 active xyz 10000 EtOCSMethyl_*_$a.xyz
dump		2 active xyz 10000 EtOCSMethyl_*_2.3.xyz
dump		3 activematrix xyz 10000 EtOCSMethyl_matrix_*_$a.xyz
dump		3 activematrix xyz 10000 EtOCSMethyl_matrix_*_2.3.xyz
run		10000
Step Temp T_ave Press P_ave Lx Ly Lz Volume E_pair TotEng
170308    298.83314     310.2732    29.987384    231.91374    77.525924    77.525924    77.525924    465951.65   -24618.454   -23628.292
Averages over the last 51 of 102 rows, steps 175400 to 180308:
Temp T_ave Press P_ave Lx Ly Lz Volume E_pair TotEng
299.85 299.843 -0.971855 -9.31225 78.748 78.748 78.748 488337 -24626.4 -23636
Loop time of 167.885 on 48 procs for 10000 steps with 17600 atoms

Pair  time (%) = 96.1384 (57.2645)
Bond  time (%) = 1.06532 (0.634554)
Neigh time (%) = 0.394906 (0.235224)
Comm  time (%) = 56.7276 (33.7896)
Outpt time (%) = 0.339866 (0.20244)
Other time (%) = 13.2188 (7.87375)

undump		1
undump		2
undump		3

#########################################################################
# remove the porogen molecules from the simulation and equilibrate the structure

delete_atoms group porogen
Deleted 0 atoms, new total = 17600

dump		1 active xyz 5000 EtOCSMethyl_*_$a.xyz
dump		1 active xyz 5000 EtOCSMethyl_*_2.3.xyz

unfix		1
fix		1 all npt 300 300 0.01 xyz 1 1 0.1 drag 2
run		20000
Step Temp T_ave Press P_ave Lx Ly Lz Volume E_pair TotEng
180308     299.9182     300.1091     201.9952    34.535104    78.816224    78.816224    78.816224    489606.15   -24625.597   -23636.796
Averages over the last 101 of 202 rows, steps 190400 to 200308:
Temp T_ave Press P_ave Lx Ly Lz Volume E_pair TotEng
300.083 300.119 -26.6738 -25.2628 79.0699 79.0699 79.0699 494349 -24629.3 -23640.6
Loop time of 321.917 on 48 procs for 20000 steps with 17600 atoms

Pair  time (%) = 187.388 (58.2101)
Bond  time (%) = 2.12026 (0.658634)
Neigh time (%) = 0.796642 (0.247468)
Comm  time (%) = 106.663 (33.1338)
Outpt time (%) = 0.535288 (0.166281)
Other time (%) = 24.4134 (7.58374)

#########################################################################
#apply setpwise pressure to measure modulus

unfix		1
fix		1 all npt 300 300 0.0100 xyz 2000 2000 0.1000 drag 2.00
run		20000
Step Temp T_ave Press P_ave Lx Ly Lz Volume E_pair TotEng
200308    300.46659    300.14243    111.40319   -114.23015    79.068531    79.068531    79.068531    494323.22   -24629.052   -23638.124
Averages over the last 101 of 202 rows, steps 210400 to 220308:
Temp T_ave Press P_ave Lx Ly Lz Volume E_pair TotEng
300.178 300.158 2021.45 2017.24 75.1427 75.1427 75.1427 424289 -24639.8 -23656.3
Loop time of 373.137 on 48 procs for 20000 steps with 17600 atoms

Pair  time (%) = 239.172 (64.0978)
Bond  time (%) = 2.1275 (0.570167)
Neigh time (%) = 0.859788 (0.230422)
Comm  time (%) = 105.302 (28.2209)
Outpt time (%) = 0.528841 (0.141729)
Other time (%) = 25.1458 (6.73902)

unfix		1
fix		1 all npt 300 300 0.0100 xyz 1500 1500 0.1000 drag 2.00
run		20000
Step Temp T_ave Press P_ave Lx Ly Lz Volume E_pair TotEng
220308    298.21693    300.99866    2120.9827    2046.5067    75.016929    75.016929    75.016929    422160.73   -24641.663   -23661.739
Averages over the last 101 of 202 rows, steps 230400 to 240308:
Temp T_ave Press P_ave Lx Ly Lz Volume E_pair TotEng
299.984 299.928 1479.75 1478.88 75.761 75.761 75.761 434849 -24640.2 -23657.6
Loop time of 363.315 on 48 procs for 20000 steps with 17600 atoms

Pair  time (%) = 232.994 (64.1301)
Bond  time (%) = 2.12521 (0.584951)
Neigh time (%) = 0.847222 (0.233192)
Comm  time (%) = 102.286 (28.1535)
Outpt time (%) = 0.530609 (0.146046)
Other time (%) = 24.5315 (6.75213)

unfix		1
fix		1 all npt 300 300 0.0100 xyz 1000 1000 0.1000 drag 2.00
run		20000
Step Temp T_ave Press P_ave Lx Ly Lz Volume E_pair TotEng
240308    300.59112    299.73211    1291.7682     1504.439    75.747703    75.747703    75.747703     434618.7   -24639.797   -23655.254
Averages over the last 101 of 202 rows, steps 250400 to 260308:
Temp T_ave Press P_ave Lx Ly Lz Volume E_pair TotEng
299.951 299.974 1001.14 1002.02 76.7086 76.7086 76.7086 451369 -24637.9 -23655
Loop time of 350.086 on 48 procs for 20000 steps with 17600 atoms

Pair  time (%) = 218.095 (62.2976)
Bond  time (%) = 2.12444 (0.606835)
Neigh time (%) = 0.8499 (0.242769)
Comm  time (%) = 103.695 (29.6199)
Outpt time (%) = 0.53485 (0.152777)
Other time (%) = 24.7867 (7.08017)

unfix		1
fix		1 all npt 300 300 0.0100 xyz 500 500 0.1000 drag 2.00
run		20000
Step Temp T_ave Press P_ave Lx Ly Lz Volume E_pair TotEng
260308    299.97003    299.94501    1247.8944    994.59546     76.82203     76.82203     76.82203    453374.76   -24637.902   -23656.101
Averages over the last 101 of 202 rows, steps 270400 to 280308:
Temp T_ave Press P_ave Lx Ly Lz Volume E_pair TotEng
300.038 300.071 519.734 517.927 77.8248 77.8248 77.8248 471363 -24633.7 -23648.8
Loop time of 334.206 on 48 procs for 20000 steps with 17600 atoms

Pair  time (%) = 202.574 (60.6136)
Bond  time (%) = 2.12948 (0.637176)
Neigh time (%) = 0.798077 (0.238798)
Comm  time (%) = 103.518 (30.9743)
Outpt time (%) = 0.533371 (0.159593)
Other time (%) = 24.6527 (7.37651)

unfix		1
fix		1 all npt 300 300 0.0100 xyz 0 0 0.1000 drag 2.00
run		20000
Step Temp T_ave Press P_ave Lx Ly Lz Volume E_pair TotEng
280308    298.50613    299.07844    482.63816    533.53051    77.788565    77.788565    77.788565    470703.34   -24630.357   -23644.577
Averages over the last 101 of 202 rows, steps 290400 to 300308:
Temp T_ave Press P_ave Lx Ly Lz Volume E_pair TotEng
299.797 299.819 -8.24631 -4.68999 79.2077 79.2077 79.2077 496939 -24629.9 -23643.9
Loop time of 314.677 on 48 procs for 20000 steps with 17600 atoms

Pair  time (%) = 185.836 (59.056)
Bond  time (%) = 2.12988 (0.676845)
Neigh time (%) = 0.778762 (0.24748)
Comm  time (%) = 101.519 (32.2613)
Outpt time (%) = 0.530176 (0.168482)
Other time (%) = 23.8835 (7.58984)

unfix		1
fix		1 all npt 300 300 0.0100 xyz -500 -500 0.1000 drag 2.00
run		20000
Step Temp T_ave Press P_ave Lx Ly Lz Volume E_pair TotEng
300308     297.8528    299.81197   -19.483902   -28.514571    79.239713    79.239713    79.239713    497540.77   -24634.553   -23656.354
Averages over the last 101 of 202 rows, steps 310400 to 320308:
Temp T_ave Press P_ave Lx Ly Lz Volume E_pair TotEng
300.038 300.073 -500.86 -493.423 80.6351 80.6351 80.6351 524294 -24624.6 -23634
Loop time of 303.059 on 48 procs for 20000 steps with 17600 atoms

Pair  time (%) = 171.966 (56.7434)
Bond  time (%) = 2.12704 (0.701856)
Neigh time (%) = 0.789094 (0.260376)
Comm  time (%) = 103.382 (34.1126)
Outpt time (%) = 0.59618 (0.19672)
Other time (%) = 24.1992 (7.98497)

unfix		1
fix		1 all npt 300 300 0.0100 xyz -1000 -1000 0.1000 drag 2.00
run		20000
Step Temp T_ave Press P_ave Lx Ly Lz Volume E_pair TotEng
320308    300.94497    299.93536   -588.98184   -492.87774    80.580328    80.580328    80.580328    523223.32   -24624.704   -23631.435
Averages over the last 101 of 202 rows, steps 330400 to 340308:
Temp T_ave Press P_ave Lx Ly Lz Volume E_pair TotEng
299.908 299.938 -989.839 -983.185 82.0438 82.0438 82.0438 552254 -24617.1 -23622.2
Loop time of 289.499 on 48 procs for 20000 steps with 17600 atoms

Pair  time (%) = 160.269 (55.3607)
Bond  time (%) = 2.12361 (0.733545)
Neigh time (%) = 0.750365 (0.259194)
Comm  time (%) = 101.025 (34.8963)
Outpt time (%) = 0.535488 (0.18497)
Other time (%) = 24.7964 (8.56528)

unfix		1
fix		1 all npt 300 300 0.0100 xyz -1500 -1500 0.1000 drag 2.00
run		20000
Step Temp T_ave Press P_ave Lx Ly Lz Volume E_pair TotEng
340308     299.6709    299.75412   -1080.2638   -1044.6179    82.085403    82.085403    82.085403    553092.54    -24621.41   -23626.004
Averages over the last 101 of 202 rows, steps 350400 to 360308:
Temp T_ave Press P_ave Lx Ly Lz Volume E_pair TotEng
299.763 299.801 -1494.53 -1495.01 83.4078 83.4078 83.4078 580258 -24605 -23605.1
Loop time of 280.345 on 48 procs for 20000 steps with 17600 atoms

Pair  time (%) = 150.442 (53.663)
Bond  time (%) = 2.12632 (0.758463)
Neigh time (%) = 0.732602 (0.261322)
Comm  time (%) = 102.501 (36.5623)
Outpt time (%) = 0.560157 (0.19981)
Other time (%) = 23.9838 (8.55509)

unfix		1
fix		1 all npt 300 300 0.0100 xyz -2000 -2000 0.1000 drag 2.00
run		20000
Step Temp T_ave Press P_ave Lx Ly Lz Volume E_pair TotEng
360308    300.43788    298.97611   -1608.5093    -1504.782    83.364926    83.364926    83.364926    579362.13   -24606.298   -23609.489
Averages over the last 101 of 202 rows, steps 370400 to 380308:
Temp T_ave Press P_ave Lx Ly Lz Volume E_pair TotEng
299.777 299.815 -2022.15 -2014.68 84.8878 84.8878 84.8878 611697 -24594.3 -23586.7
Loop time of 278.731 on 48 procs for 20000 steps with 17600 atoms

Pair  time (%) = 143.377 (51.4394)
Bond  time (%) = 2.12778 (0.763382)
Neigh time (%) = 0.720594 (0.258527)
Comm  time (%) = 107.705 (38.6413)
Outpt time (%) = 0.548786 (0.196887)
Other time (%) = 24.2509 (8.70046)

#########################################################################
clear
next a
next p
next q
next r
next s
next t
next v
jump in.EtOCSMethyl# EtOCSMethyl -- network connectivity scan -- with bulk modulus simulation

# trial parameter
variable a index 1.1 1.2 1.3 2.1 2.2 2.3 3.1 3.2 3.3
# EtOCSMethyl precursor start moleculeID parameter
variable p index 1 1 1 1 1 1 1 1 1
# EtOCSMethyl precursor end moleculeID parameter
variable q index 2000 2000 2000 2000 2000 2000 2000 2000 2000
# free O start atomID parameter
variable r index 10001 10001 10001 10001 10001 10001 10001 10001 10001
# free O end atomID parameter
variable s index 16800 16800 16800 17600 17600 17600 18400 18400 18400
# porogen start moleculeID parameter
variable t index 2001 2001 2001 2001 2001 2001 2001 2001 2001
# porogen end moleculeID parameter
variable v index 2000 2000 2000 2000 2000 2000 2000 2000 2000

log log_$a.lammps
log log_3.1.lammps
